7BMI_U4B_A_802
     RDKit          3D

 13 13  0  0  0  0  0  0  0  0999 V2000
   55.3336   19.1963   25.3115 C   0  0  0  0  0  0  0  0  0  0  0  0
   55.7905   20.6129   25.5634 C   0  0  0  0  0  0  0  0  0  0  0  0
   55.1115   21.4186   26.4444 C   0  0  0  0  0  0  0  0  0  0  0  0
   55.5247   22.7315   26.6190 C   0  0  0  0  0  0  0  0  0  0  0  0
   57.2365   22.4654   25.1074 C   0  0  0  0  0  0  0  0  0  0  0  0
   58.3984   23.0710   24.3567 C   0  0  0  0  0  0  0  0  0  0  0  0
   56.8623   21.1209   24.8573 C   0  0  0  0  0  0  0  0  0  0  0  0
   57.4976   20.3408   24.0033 F   0  0  0  0  0  0  0  0  0  0  0  0
   56.5231   23.2330   25.9728 N   0  0  0  0  0  0  0  0  0  0  0  0
   55.9906   18.1545   25.6465 O   0  0  0  0  0  0  0  0  0  0  0  0
   54.2943   19.1202   24.6407 O   0  0  0  0  0  0  0  0  0  0  0  0
   59.0768   22.4036   23.4788 O   0  0  0  0  0  0  0  0  0  0  0  0
   58.7822   24.2254   24.5965 O   0  0  0  0  0  0  0  0  0  0  0  0
  1  2  1  0
  2  3  2  0
  3  4  1  0
  5  6  1  0
  2  7  1  0
  5  7  2  0
  7  8  1  0
  4  9  2  0
  5  9  1  0
  1 10  1  0
  1 11  2  0
  6 12  2  0
  6 13  1  0
M  END
