1HVY_D16_D_417
     RDKit          3D

 54 56  0  0  0  0  0  0  0  0999 V2000
  -12.8881   -4.1714    5.7375 N   0  0  0  0  0  4  0  0  0  0  0  0
  -11.8837   -5.0317    6.0687 C   0  0  0  0  0  0  0  0  0  0  0  0
  -11.6909   -6.3021    5.2989 C   0  0  0  0  0  0  0  0  0  0  0  0
  -11.0616   -4.7459    7.1127 N   0  0  0  0  0  0  0  0  0  0  0  0
  -11.2079   -3.6094    7.8413 C   0  0  0  0  0  0  0  0  0  0  0  0
  -10.4213   -3.3869    8.8004 O   0  0  0  0  0  0  0  0  0  0  0  0
  -12.2311   -2.7014    7.5201 C   0  0  0  0  0  0  0  0  0  0  0  0
  -12.4374   -1.5142    8.2463 C   0  0  0  0  0  0  0  0  0  0  0  0
  -13.4869   -0.6453    7.9046 C   0  0  0  0  0  0  0  0  0  0  0  0
  -14.3286   -0.9689    6.8298 C   0  0  0  0  0  0  0  0  0  0  0  0
  -14.1226   -2.1402    6.0962 C   0  0  0  0  0  0  0  0  0  0  0  0
  -13.0801   -3.0159    6.4369 C   0  0  0  0  0  0  0  0  0  0  0  0
  -13.7725    0.5687    8.7508 C   0  0  0  0  0  0  0  0  0  0  0  0
  -12.5380    1.3393    8.9511 N   0  0  0  0  0  0  0  0  0  0  0  0
   -9.5527   -0.9896    9.9340 C   0  0  0  0  0  0  0  0  0  0  0  0
  -11.2357   -0.9442    9.8300 S   0  0  0  0  0  0  0  0  0  0  0  0
  -11.3276    0.6596    9.3272 C   0  0  0  0  0  0  0  0  0  0  0  0
  -10.0426    1.1830    9.2303 C   0  0  0  0  0  0  0  0  0  0  0  0
   -9.0502    0.2597    9.5763 C   0  0  0  0  0  0  0  0  0  0  0  0
   -8.7383   -2.1701   10.2742 C   0  0  0  0  0  0  0  0  0  0  0  0
   -8.6042   -2.4975   11.4850 O   0  0  0  0  0  0  0  0  0  0  0  0
   -8.0807   -2.9326    9.2481 N   0  0  0  0  0  0  0  0  0  0  0  0
   -8.7589   -3.2927    7.9974 C   0  0  1  0  0  0  0  0  0  0  0  0
   -8.9664   -4.8184    7.8961 C   0  0  0  0  0  0  0  0  0  0  0  0
   -9.3123   -5.2859    6.4720 C   0  0  0  0  0  0  0  0  0  0  0  0
  -10.6532   -4.7799    6.0311 C   0  0  0  0  0  0  0  0  0  0  0  0
  -11.0050   -3.5999    6.3032 O   0  0  0  0  0  0  0  0  0  0  0  0
  -11.5255   -5.6280    5.3500 O   0  0  0  0  0  0  0  0  0  0  0  0
  -10.0889   -2.5962    7.9346 C   0  0  0  0  0  0  0  0  0  0  0  0
  -10.3018   -1.5786    8.6455 O   0  0  0  0  0  0  0  0  0  0  0  0
  -11.0850   -3.0671    7.0808 O   0  0  0  0  0  0  0  0  0  0  0  0
  -12.6195    2.7954    9.0852 C   0  0  0  0  0  0  0  0  0  0  0  0
  -13.5184   -4.4076    4.9367 H   0  0  0  0  0  0  0  0  0  0  0  0
  -12.5737   -6.9617    5.4446 H   0  0  0  0  0  0  0  0  0  0  0  0
  -11.5795   -6.0720    4.2180 H   0  0  0  0  0  0  0  0  0  0  0  0
  -10.7798   -6.8373    5.6445 H   0  0  0  0  0  0  0  0  0  0  0  0
  -11.7973   -1.2702    9.0861 H   0  0  0  0  0  0  0  0  0  0  0  0
  -15.1536   -0.3174    6.5669 H   0  0  0  0  0  0  0  0  0  0  0  0
  -14.7849   -2.3714    5.2711 H   0  0  0  0  0  0  0  0  0  0  0  0
  -14.1957    0.2535    9.7310 H   0  0  0  0  0  0  0  0  0  0  0  0
  -14.5504    1.2027    8.2730 H   0  0  0  0  0  0  0  0  0  0  0  0
   -9.8243    2.1919    8.9100 H   0  0  0  0  0  0  0  0  0  0  0  0
   -7.9936    0.4948    9.5449 H   0  0  0  0  0  0  0  0  0  0  0  0
   -7.1324   -3.3290    9.4399 H   0  0  0  0  0  0  0  0  0  0  0  0
   -8.1384   -2.9619    7.1347 H   0  0  0  0  0  0  0  0  0  0  0  0
   -8.0390   -5.3385    8.2255 H   0  0  0  0  0  0  0  0  0  0  0  0
   -9.7818   -5.1319    8.5877 H   0  0  0  0  0  0  0  0  0  0  0  0
   -9.3348   -6.3979    6.4584 H   0  0  0  0  0  0  0  0  0  0  0  0
   -8.5272   -4.9627    5.7522 H   0  0  0  0  0  0  0  0  0  0  0  0
  -12.4433   -5.3096    5.0603 H   0  0  0  0  0  0  0  0  0  0  0  0
  -11.9865   -2.6070    7.0284 H   0  0  0  0  0  0  0  0  0  0  0  0
  -13.2853    3.2172    8.3019 H   0  0  0  0  0  0  0  0  0  0  0  0
  -11.6156    3.2570    8.9599 H   0  0  0  0  0  0  0  0  0  0  0  0
  -13.0148    3.0568   10.0893 H   0  0  0  0  0  0  0  0  0  0  0  0
  1  2  4  0
  2  3  1  0
  2  4  4  0
  4  5  4  0
  5  6  2  0
  5  7  4  0
  7  8  4  0
  8  9  4  0
  9 10  4  0
 10 11  4  0
  1 12  4  0
  7 12  4  0
 11 12  4  0
  9 13  1  0
 13 14  1  0
 15 16  4  0
 14 17  1  0
 16 17  4  0
 17 18  4  0
 15 19  4  0
 18 19  4  0
 15 20  1  0
 20 21  2  0
 20 22  1  0
 22 23  1  0
 23 24  1  0
 24 25  1  0
 25 26  1  0
 26 27  2  0
 26 28  1  0
 23 29  1  0
 29 30  2  0
 29 31  1  0
 14 32  1  0
  1 33  1  0
  3 34  1  0
  3 35  1  0
  3 36  1  0
  8 37  1  0
 10 38  1  0
 11 39  1  0
 13 40  1  0
 13 41  1  0
 18 42  1  0
 19 43  1  0
 22 44  1  0
 23 45  1  6
 24 46  1  0
 24 47  1  0
 25 48  1  0
 25 49  1  0
 28 50  1  0
 31 51  1  0
 32 52  1  0
 32 53  1  0
 32 54  1  0
M  CHG  1   1   1
M  END
