
     RDKit          3D

 15 15  0  0  0  0  0  0  0  0999 V2000
   47.4769   20.0857   70.6063 C   0  0  2  0  0  0  0  0  0  0  0  0
   48.8861   19.7689   70.0265 C   0  0  1  0  0  0  0  0  0  0  0  0
   49.9350   20.1833   71.0781 C   0  0  2  0  0  0  0  0  0  0  0  0
   49.7519   21.6453   71.4961 C   0  0  2  0  0  0  0  0  0  0  0  0
   48.3026   21.8637   71.9707 C   0  0  1  0  0  0  0  0  0  0  0  0
   48.0112   23.3317   72.2955 C   0  0  0  0  0  0  0  0  0  0  0  0
   49.3413   17.4079   70.6204 C   0  0  0  0  0  0  0  0  0  0  0  0
   50.7817   16.9912   70.7347 C   0  0  0  0  0  0  0  0  0  0  0  0
   49.0960   18.3591   69.6585 N   0  0  0  0  0  0  0  0  0  0  0  0
   46.4083   19.7971   69.7206 O   0  0  0  0  0  0  0  0  0  0  0  0
   51.2525   19.9946   70.5365 O   0  0  0  0  0  0  0  0  0  0  0  0
   50.1029   22.4459   70.3546 O   0  0  0  0  0  0  0  0  0  0  0  0
   47.3790   21.4719   70.9439 O   0  0  0  0  0  0  0  0  0  0  0  0
   48.6537   23.6961   73.5196 O   0  0  0  0  0  0  0  0  0  0  0  0
   48.4558   16.9285   71.3223 O   0  0  0  0  0  0  0  0  0  0  0  0
  1  2  1  0
  2  3  1  0
  3  4  1  0
  4  5  1  0
  5  6  1  6
  7  8  1  0
  2  9  1  1
  7  9  1  0
  1 10  1  6
  3 11  1  6
  4 12  1  6
  1 13  1  0
  5 13  1  0
  6 14  1  0
  7 15  2  0
M  END
