7QHL_D5P_C_301
     RDKit          3D

 30 34  0  0  0  0  0  0  0  0999 V2000
   20.5490  -12.4657   33.6285 N   0  0  0  0  0  0  0  0  0  0  0  0
   24.1747  -19.0957   36.6723 N   0  0  0  0  0  0  0  0  0  0  0  0
   23.7676  -17.9697   35.8816 C   0  0  0  0  0  0  0  0  0  0  0  0
   23.6791  -19.2629   38.0298 C   0  0  0  0  0  0  0  0  0  0  0  0
   24.8526  -19.5203   38.8973 C   0  0  0  0  0  0  0  0  0  0  0  0
   25.3356  -20.8324   38.8995 C   0  0  0  0  0  0  0  0  0  0  0  0
   26.4224  -21.2052   39.6634 C   0  0  0  0  0  0  0  0  0  0  0  0
   28.8076  -21.8128   41.0538 C   0  0  0  0  0  0  0  0  0  0  0  0
   26.5498  -18.9313   40.4348 C   0  0  0  0  0  0  0  0  0  0  0  0
   23.6242  -18.0405   34.5143 C   0  0  0  0  0  0  0  0  0  0  0  0
   22.8284  -16.5527   31.3084 C   0  0  2  0  0  0  0  0  0  0  0  0
   21.5602  -15.7893   31.6055 C   0  0  0  0  0  0  0  0  0  0  0  0
   23.2325  -16.9551   33.7589 C   0  0  0  0  0  0  0  0  0  0  0  0
   20.8330  -13.1418   34.8746 C   0  0  0  0  0  0  0  0  0  0  0  0
   22.3068  -12.9417   35.1798 C   0  0  0  0  0  0  0  0  0  0  0  0
   22.7681  -14.1122   36.4854 S   0  0  0  0  0  0  0  0  0  0  0  0
   23.1173  -15.6909   35.7371 C   0  0  0  0  0  0  0  0  0  0  0  0
   23.5055  -16.7723   36.4727 N   0  0  0  0  0  0  0  0  0  0  0  0
   27.0334  -20.2249   40.4429 C   0  0  0  0  0  0  0  0  0  0  0  0
   28.1565  -20.6257   41.2278 N   0  0  0  0  0  0  0  0  0  0  0  0
   29.8223  -21.8322   41.9886 C   0  0  0  0  0  0  0  0  0  0  0  0
   29.7786  -20.6624   42.7184 C   0  0  0  0  0  0  0  0  0  0  0  0
   28.7330  -19.9540   42.2087 N   0  0  0  0  0  0  0  0  0  0  0  0
   25.4579  -18.5501   39.6693 C   0  0  0  0  0  0  0  0  0  0  0  0
   23.8196  -19.1002   33.6847 N   0  0  0  0  0  0  0  0  0  0  0  0
   23.5635  -18.7039   32.4605 N   0  0  0  0  0  0  0  0  0  0  0  0
   23.2036  -17.4093   32.4581 C   0  0  0  0  0  0  0  0  0  0  0  0
   23.5435  -15.2215   31.2638 C   0  0  0  0  0  0  0  0  0  0  0  0
   22.2168  -14.4849   31.1738 C   0  0  0  0  0  0  0  0  0  0  0  0
   22.9874  -15.7991   34.3960 N   0  0  0  0  0  0  0  0  0  0  0  0
  2  3  1  0
  4  2  1  1
  4  5  1  0
  5  6  2  0
  6  7  1  0
  3 10  2  0
 12 11  1  1
 10 13  1  0
 14  1  1  6
 14 15  1  0
 15 16  1  1
 16 17  1  0
 17 18  2  0
  3 18  1  0
  7 19  2  0
  9 19  1  0
 19 20  1  0
  8 20  1  0
  8 21  2  0
 21 22  1  0
 20 23  1  0
 22 23  2  0
  5 24  1  0
  9 24  2  0
 10 25  1  0
 25 26  1  0
 11 27  1  1
 26 27  2  0
 13 27  1  0
 11 28  1  0
 29 12  1  1
 28 29  1  6
 13 30  2  0
 17 30  1  0
M  END
$$$$
