7C6P_SQH_A_501
     RDKit          3D

 31 33  0  0  0  0  0  0  0  0999 V2000
    7.2687  -13.3115   -6.2954 C   0  0  0  0  0  0  0  0  0  0  0  0
    3.3808  -14.7565   -6.6061 C   0  0  0  0  0  0  0  0  0  0  0  0
    4.4501  -15.3178   -7.3266 C   0  0  0  0  0  0  0  0  0  0  0  0
    4.2582  -16.4729   -8.2395 C   0  0  0  0  0  0  0  0  0  0  0  0
    2.9836  -16.8363   -8.7171 C   0  0  0  0  0  0  0  0  0  0  0  0
    2.8288  -17.9233   -9.5854 C   0  0  0  0  0  0  0  0  0  0  0  0
    3.9533  -18.6595   -9.9927 C   0  0  0  0  0  0  0  0  0  0  0  0
    5.2243  -18.2953   -9.5319 C   0  0  0  0  0  0  0  0  0  0  0  0
    5.3766  -17.2088   -8.6672 C   0  0  0  0  0  0  0  0  0  0  0  0
    5.9513  -13.7825   -6.3880 C   0  0  0  0  0  0  0  0  0  0  0  0
    4.9229  -13.1639   -5.6428 C   0  0  0  0  0  0  0  0  0  0  0  0
    5.2293  -12.0745   -4.8102 C   0  0  0  0  0  0  0  0  0  0  0  0
    6.5429  -11.6081   -4.7217 C   0  0  0  0  0  0  0  0  0  0  0  0
    7.5652  -12.2205   -5.4596 C   0  0  0  0  0  0  0  0  0  0  0  0
    3.6200  -13.6720   -5.7611 C   0  0  0  0  0  0  0  0  0  0  0  0
    5.6750  -14.8142   -7.1811 O   0  0  0  0  0  0  0  0  0  0  0  0
    1.5507  -18.2536  -10.0355 O   0  0  0  0  0  0  0  0  0  0  0  0
    3.8044  -19.7452  -10.8544 O   0  0  0  0  0  0  0  0  0  0  0  0
    2.6636  -13.1666   -5.1127 O   0  0  0  0  0  0  0  0  0  0  0  0
    8.8738  -11.7492   -5.3651 O   0  0  0  0  0  0  0  0  0  0  0  0
    8.2704  -13.9369   -7.0390 O   0  0  0  0  0  0  0  0  0  0  0  0
    2.3808  -15.1650   -6.6731 H   0  0  0  0  0  0  0  0  0  0  0  0
    2.1053  -16.2677   -8.4429 H   0  0  0  0  0  0  0  0  0  0  0  0
    6.0972  -18.8548   -9.8436 H   0  0  0  0  0  0  0  0  0  0  0  0
    6.3708  -16.9513   -8.3225 H   0  0  0  0  0  0  0  0  0  0  0  0
    4.4587  -11.5837   -4.2283 H   0  0  0  0  0  0  0  0  0  0  0  0
    6.7666  -10.7678   -4.0767 H   0  0  0  0  0  0  0  0  0  0  0  0
    1.3895  -19.0076  -10.6924 H   0  0  0  0  0  0  0  0  0  0  0  0
    4.6029  -20.2771  -11.1806 H   0  0  0  0  0  0  0  0  0  0  0  0
    9.1138  -10.9643   -4.7706 H   0  0  0  0  0  0  0  0  0  0  0  0
    9.2364  -13.6346   -7.0036 H   0  0  0  0  0  0  0  0  0  0  0  0
  2  3  2  0
  3  4  1  0
  4  5  2  0
  5  6  1  0
  6  7  2  0
  7  8  1  0
  8  9  2  0
  4  9  1  0
  1 10  2  0
 10 11  1  0
 11 12  2  0
 12 13  1  0
  1 14  1  0
 13 14  2  0
  2 15  1  0
 11 15  1  0
  3 16  1  0
 10 16  1  0
  6 17  1  0
  7 18  1  0
 15 19  2  0
 14 20  1  0
  1 21  1  0
  2 22  1  0
  5 23  1  0
  8 24  1  0
  9 25  1  0
 12 26  1  0
 13 27  1  0
 17 28  1  0
 18 29  1  0
 20 30  1  0
 21 31  1  0
M  END
