8EYE_X4I_A_1106
     RDKit          3D

 33 35  0  0  0  0  0  0  0  0999 V2000
   13.9576    8.9304   13.6144 C   0  0  0  0  0  0  0  0  0  0  0  0
   13.5571   11.3978    9.4119 N   0  0  0  0  0  0  0  0  0  0  0  0
   14.8796   11.5164    8.7883 C   0  0  0  0  0  0  0  0  0  0  0  0
   13.2610    7.3917    6.9327 C   0  0  0  0  0  0  0  0  0  0  0  0
   12.8302    5.8769    8.7815 C   0  0  0  0  0  0  0  0  0  0  0  0
   13.2751    6.8256    9.6795 C   0  0  0  0  0  0  0  0  0  0  0  0
   16.4224    4.8148   13.9550 C   0  0  0  0  0  0  0  0  0  0  0  0
   16.0843    5.8812   13.1587 C   0  0  0  0  0  0  0  0  0  0  0  0
   15.0265    6.6769   13.5916 C   0  0  0  0  0  0  0  0  0  0  0  0
   14.5233    7.9206   12.8912 C   0  0  0  0  0  0  0  0  0  0  0  0
   14.7833    8.0485   11.5160 C   0  0  0  0  0  0  0  0  0  0  0  0
   14.3878    9.2215   10.8537 C   0  0  0  0  0  0  0  0  0  0  0  0
   13.7987   10.2520   11.5863 C   0  0  0  0  0  0  0  0  0  0  0  0
   13.5610   10.1322   12.9372 C   0  0  0  0  0  0  0  0  0  0  0  0
   13.4516   11.5304   10.8547 C   0  0  2  0  0  0  0  0  0  0  0  0
   15.3929   10.2852    7.9477 C   0  0  0  0  0  0  0  0  0  0  0  0
   13.7070    8.3417    7.8293 C   0  0  0  0  0  0  0  0  0  0  0  0
   12.8184    6.1813    7.4199 C   0  0  0  0  0  0  0  0  0  0  0  0
   13.7321    8.0496    9.2222 C   0  0  0  0  0  0  0  0  0  0  0  0
   12.1837   12.2029   11.2959 C   0  0  0  0  0  0  0  0  0  0  0  0
   14.3698    6.4238   14.8107 C   0  0  0  0  0  0  0  0  0  0  0  0
   14.7312    5.3424   15.5892 C   0  0  0  0  0  0  0  0  0  0  0  0
   15.7695    4.5486   15.1565 C   0  0  0  0  0  0  0  0  0  0  0  0
   17.4278    3.9969   13.5603 F   0  0  0  0  0  0  0  0  0  0  0  0
   12.4017    5.2488    6.5533 F   0  0  0  0  0  0  0  0  0  0  0  0
   13.2650    6.5072   11.0067 F   0  0  0  0  0  0  0  0  0  0  0  0
   14.1178    5.0420   16.7976 F   0  0  0  0  0  0  0  0  0  0  0  0
   16.1307    3.4736   15.9501 F   0  0  0  0  0  0  0  0  0  0  0  0
   14.1840    9.6373    7.2959 N   0  0  0  0  0  0  0  0  0  0  0  0
   12.1119   12.4376   12.7211 N   0  0  0  0  0  0  0  0  0  0  0  0
   15.5073   12.4932    8.8739 O   0  0  0  0  0  0  0  0  0  0  0  0
   10.8725   12.8610   13.2129 O   0  0  0  0  0  0  0  0  0  0  0  0
   11.3336   12.5509   10.5222 O   0  0  0  0  0  0  0  0  0  0  0  0
  2  3  1  0
  5  6  1  0
  7  8  2  0
  8  9  1  0
  1 10  2  0
  9 10  1  0
 10 11  1  0
 11 12  2  0
 12 13  1  0
 13 14  2  0
  1 14  1  0
 15  2  1  6
 13 15  1  0
  3 16  1  0
  4 17  2  0
  4 18  1  0
  5 18  2  0
 17 19  1  0
  6 19  2  0
 15 20  1  0
  9 21  2  0
 21 22  1  0
  7 23  1  0
 22 23  2  0
  7 24  1  0
 18 25  1  0
  6 26  1  0
 22 27  1  0
 23 28  1  0
 16 29  1  0
 17 29  1  0
 20 30  1  0
  3 31  2  0
 30 32  1  0
 20 33  2  0
M  END
