7N03_ZRP_A_201
     RDKit          3D

 56 58  0  0  0  0  0  0  0  0999 V2000
  -42.0925   12.1477    0.6459 C   0  0  0  0  0  0  0  0  0  0  0  0
  -43.0164   13.1034   -0.1038 C   0  0  0  0  0  0  0  0  0  0  0  0
  -44.4871   12.7942    0.1293 C   0  0  0  0  0  0  0  0  0  0  0  0
  -46.8616   10.4168    2.1620 C   0  0  0  0  0  0  0  0  0  0  0  0
  -47.6173   11.1546    3.0255 C   0  0  0  0  0  0  0  0  0  0  0  0
  -47.0096   12.1123    3.8727 C   0  0  0  0  0  0  0  0  0  0  0  0
  -45.6062   12.2835    3.8174 C   0  0  0  0  0  0  0  0  0  0  0  0
  -44.8531   11.4755    2.9300 C   0  0  0  0  0  0  0  0  0  0  0  0
  -45.0315   13.2536    4.6800 C   0  0  0  0  0  0  0  0  0  0  0  0
  -45.8381   13.9147    5.6204 C   0  0  0  0  0  0  0  0  0  0  0  0
  -47.2181   13.6635    5.5590 C   0  0  0  0  0  0  0  0  0  0  0  0
  -45.2696   14.8597    6.6236 C   0  0  0  0  0  0  0  0  0  0  0  0
  -46.6898   16.4372    7.8025 C   0  0  0  0  0  0  0  0  0  0  0  0
  -41.7510   10.7411    6.0261 C   0  0  0  0  0  0  0  0  0  0  0  0
  -40.5872   10.7533    5.2708 C   0  0  0  0  0  0  0  0  0  0  0  0
  -40.4097   11.7095    4.3019 C   0  0  0  0  0  0  0  0  0  0  0  0
  -41.4265   12.6112    4.0366 C   0  0  0  0  0  0  0  0  0  0  0  0
  -44.1230   15.3289    6.5159 O   0  0  0  0  0  0  0  0  0  0  0  0
  -45.9834   15.1686    7.7040 N   0  0  0  0  0  0  0  0  0  0  0  0
  -47.7935   12.8263    4.7255 N   0  0  0  0  0  0  0  0  0  0  0  0
  -43.6731   13.5388    4.6238 N   0  0  0  0  0  0  0  0  0  0  0  0
  -42.6043   12.5757    4.7642 C   0  0  0  0  0  0  0  0  0  0  0  0
  -42.7662   11.6353    5.7742 C   0  0  0  0  0  0  0  0  0  0  0  0
  -45.4760   10.5487    2.1144 C   0  0  0  0  0  0  0  0  0  0  0  0
  -44.7128    9.7367    1.3010 N   0  0  0  0  0  0  0  0  0  0  0  0
  -44.1671   10.2579    0.0554 C   0  0  0  0  0  0  0  0  0  0  0  0
  -44.9208   11.4674   -0.4436 C   0  0  0  0  0  0  0  0  0  0  0  0
  -41.7745   10.8683   -0.0913 C   0  0  0  0  0  0  0  0  0  0  0  0
  -41.1722   12.6579    0.8403 H   0  0  0  0  0  0  0  0  0  0  0  0
  -42.6119   11.8620    1.5367 H   0  0  0  0  0  0  0  0  0  0  0  0
  -42.8190   14.1016    0.2268 H   0  0  0  0  0  0  0  0  0  0  0  0
  -42.8221   12.9897   -1.1499 H   0  0  0  0  0  0  0  0  0  0  0  0
  -44.6680   12.7833    1.1839 H   0  0  0  0  0  0  0  0  0  0  0  0
  -45.0517   13.5530   -0.3710 H   0  0  0  0  0  0  0  0  0  0  0  0
  -47.3268    9.7463    1.5304 H   0  0  0  0  0  0  0  0  0  0  0  0
  -48.6390   11.0137    3.0614 H   0  0  0  0  0  0  0  0  0  0  0  0
  -43.8271   11.5798    2.8918 H   0  0  0  0  0  0  0  0  0  0  0  0
  -47.8261   14.1747    6.2179 H   0  0  0  0  0  0  0  0  0  0  0  0
  -47.1989   16.4898    8.7421 H   0  0  0  0  0  0  0  0  0  0  0  0
  -45.9886   17.2423    7.7311 H   0  0  0  0  0  0  0  0  0  0  0  0
  -47.4011   16.5120    7.0068 H   0  0  0  0  0  0  0  0  0  0  0  0
  -41.8568   10.0521    6.7870 H   0  0  0  0  0  0  0  0  0  0  0  0
  -39.8559   10.0444    5.4373 H   0  0  0  0  0  0  0  0  0  0  0  0
  -39.5238   11.7560    3.7744 H   0  0  0  0  0  0  0  0  0  0  0  0
  -41.3059   13.3147    3.2912 H   0  0  0  0  0  0  0  0  0  0  0  0
  -46.0343   14.5275    8.4494 H   0  0  0  0  0  0  0  0  0  0  0  0
  -43.4163   14.4776    4.4756 H   0  0  0  0  0  0  0  0  0  0  0  0
  -43.6364   11.6078    6.3283 H   0  0  0  0  0  0  0  0  0  0  0  0
  -44.5368    8.8042    1.5628 H   0  0  0  0  0  0  0  0  0  0  0  0
  -43.1455   10.5322    0.2164 H   0  0  0  0  0  0  0  0  0  0  0  0
  -44.2558    9.4906   -0.6852 H   0  0  0  0  0  0  0  0  0  0  0  0
  -44.8009   11.5136   -1.5059 H   0  0  0  0  0  0  0  0  0  0  0  0
  -45.9331   11.3305   -0.1251 H   0  0  0  0  0  0  0  0  0  0  0  0
  -41.2514   11.0985   -0.9959 H   0  0  0  0  0  0  0  0  0  0  0  0
  -41.1626   10.2439    0.5256 H   0  0  0  0  0  0  0  0  0  0  0  0
  -42.6843   10.3562   -0.3257 H   0  0  0  0  0  0  0  0  0  0  0  0
  1  2  1  0
  2  3  1  0
  4  5  4  0
  5  6  4  0
  6  7  4  0
  7  8  4  0
  7  9  4  0
  9 10  4  0
 10 11  4  0
 10 12  1  0
 14 15  4  0
 15 16  4  0
 16 17  4  0
 12 18  2  0
 12 19  1  0
 13 19  1  0
  6 20  4  0
 11 20  4  0
  9 21  1  0
 21 22  1  0
 17 22  4  0
 14 23  4  0
 22 23  4  0
  4 24  4  0
  8 24  4  0
 24 25  1  0
 25 26  1  0
 26 27  1  0
  3 27  1  0
  1 28  1  0
  1 29  1  0
  1 30  1  0
  2 31  1  0
  2 32  1  0
  3 33  1  0
  3 34  1  0
  4 35  1  0
  5 36  1  0
  8 37  1  0
 11 38  1  0
 13 39  1  0
 13 40  1  0
 13 41  1  0
 14 42  1  0
 15 43  1  0
 16 44  1  0
 17 45  1  0
 19 46  1  0
 21 47  1  0
 23 48  1  0
 25 49  1  0
 26 50  1  0
 26 51  1  0
 27 52  1  0
 27 53  1  0
 28 54  1  0
 28 55  1  0
 28 56  1  0
M  END
