7LZD_YHY_A_1805
     RDKit          3D

 29 32  0  0  0  0  0  0  0  0999 V2000
   -5.6053   27.3013   -3.9843 C   0  0  0  0  0  0  0  0  0  0  0  0
   -6.7365   26.5208   -3.5164 N   0  0  0  0  0  0  0  0  0  0  0  0
   -7.2545   25.7090   -4.5752 C   0  0  0  0  0  0  0  0  0  0  0  0
   -6.4540   25.8174   -2.2998 C   0  0  2  0  0  0  0  0  0  0  0  0
   -6.7131   26.6991   -1.1107 C   0  0  0  0  0  0  0  0  0  0  0  0
   -5.4303   27.0834   -0.3703 C   0  0  0  0  0  0  0  0  0  0  0  0
   -4.6510   24.8216   -0.9736 C   0  0  0  0  0  0  0  0  0  0  0  0
   -4.7654   25.8862    0.0362 N   0  0  0  0  0  0  0  0  0  0  0  0
   -4.9815   25.4360   -2.3000 C   0  0  0  0  0  0  0  0  0  0  0  0
   -4.2144   25.6347    1.3120 C   0  0  0  0  0  0  0  0  0  0  0  0
   -4.3882   26.4973    2.3998 C   0  0  0  0  0  0  0  0  0  0  0  0
   -3.8688   26.2699    3.6348 C   0  0  0  0  0  0  0  0  0  0  0  0
   -3.1231   25.0915    3.7817 C   0  0  0  0  0  0  0  0  0  0  0  0
   -2.9271   24.2246    2.7567 C   0  0  0  0  0  0  0  0  0  0  0  0
   -3.4692   24.4979    1.5365 C   0  0  0  0  0  0  0  0  0  0  0  0
   -3.9966   27.0774    4.7687 N   0  0  0  0  0  0  0  0  0  0  0  0
   -4.4772   28.4086    4.7999 C   0  0  0  0  0  0  0  0  0  0  0  0
   -4.8700   29.0030    3.7827 O   0  0  0  0  0  0  0  0  0  0  0  0
   -4.5292   29.1543    6.0753 C   0  0  0  0  0  0  0  0  0  0  0  0
   -4.1954   28.6562    7.3249 C   0  0  0  0  0  0  0  0  0  0  0  0
   -4.3702   29.6465    8.2792 C   0  0  0  0  0  0  0  0  0  0  0  0
   -4.8118   30.7429    7.5907 C   0  0  0  0  0  0  0  0  0  0  0  0
   -5.0683   31.8887    8.3141 C   0  0  0  0  0  0  0  0  0  0  0  0
   -5.5455   33.0947    7.6193 C   0  0  0  0  0  0  0  0  0  0  0  0
   -4.8826   31.9241    9.6986 C   0  0  0  0  0  0  0  0  0  0  0  0
   -4.4312   30.7791   10.3494 C   0  0  0  0  0  0  0  0  0  0  0  0
   -4.1657   29.6118    9.6421 C   0  0  0  0  0  0  0  0  0  0  0  0
   -3.7256   28.5030   10.2947 F   0  0  0  0  0  0  0  0  0  0  0  0
   -4.9011   30.4307    6.2742 N   0  0  0  0  0  0  0  0  0  0  0  0
  1  2  1  0
  2  3  1  0
  4  2  1  6
  4  5  1  0
  5  6  1  0
  7  8  1  0
  6  8  1  0
  7  9  1  0
  4  9  1  0
  8 10  1  0
 10 11  2  0
 11 12  1  0
 12 13  2  0
 13 14  1  0
 14 15  2  0
 10 15  1  0
 12 16  1  0
 16 17  1  0
 17 18  2  0
 17 19  1  0
 19 20  2  0
 20 21  1  0
 21 22  2  0
 22 23  1  0
 23 24  1  0
 23 25  2  0
 25 26  1  0
 21 27  1  0
 26 27  2  0
 27 28  1  0
 19 29  1  0
 22 29  1  0
M  END
$$$$
