
     RDKit          3D

 51 53  0  0  0  0  0  0  0  0999 V2000
  -19.7212  -43.1410   37.6888 N   0  0  0  0  0  0  0  0  0  0  0  0
  -20.4012  -44.1946   38.1901 C   0  0  0  0  0  0  0  0  0  0  0  0
  -21.5678  -44.1919   38.8628 N   0  0  0  0  0  0  0  0  0  0  0  0
  -22.0632  -42.9493   38.9815 C   0  0  0  0  0  0  0  0  0  0  0  0
  -21.4921  -41.7823   38.5026 C   0  0  0  0  0  0  0  0  0  0  0  0
  -20.2685  -41.9078   37.8240 C   0  0  0  0  0  0  0  0  0  0  0  0
  -19.6084  -40.8199   37.2619 N   0  0  0  0  0  0  0  0  0  0  0  0
  -22.2843  -40.6913   38.7809 N   0  0  0  0  0  0  0  0  0  0  0  0
  -23.3073  -41.1851   39.4428 C   0  0  0  0  0  0  0  0  0  0  0  0
  -23.2299  -42.5511   39.5752 N   0  0  0  0  0  0  0  0  0  0  0  0
  -24.2234  -43.3536   40.2559 C   0  0  1  0  0  0  0  0  0  0  0  0
  -24.2193  -43.3516   41.7822 C   0  0  2  0  0  0  0  0  0  0  0  0
  -24.6015  -44.6609   42.2508 O   0  0  0  0  0  0  0  0  0  0  0  0
  -25.2872  -42.3301   42.1441 C   0  0  2  0  0  0  0  0  0  0  0  0
  -25.9530  -42.7527   43.3318 O   0  0  0  0  0  0  0  0  0  0  0  0
  -27.5034  -43.1341   43.2745 P   0  0  0  0  0  5  0  0  0  0  0  0
  -28.4355  -42.0758   42.8042 O   0  0  0  0  0  0  0  0  0  0  0  0
  -27.5435  -44.4477   42.3673 O   0  0  0  0  0  0  0  0  0  0  0  0
  -27.8305  -43.7187   44.7166 O   0  0  0  0  0  0  0  0  0  0  0  0
  -26.2341  -42.3468   40.9447 C   0  0  2  0  0  0  0  0  0  0  0  0
  -25.5214  -42.9087   39.8212 O   0  0  0  0  0  0  0  0  0  0  0  0
  -26.7084  -40.9461   40.5255 C   0  0  0  0  0  0  0  0  0  0  0  0
  -25.7448  -39.9756   40.9192 O   0  0  0  0  0  0  0  0  0  0  0  0
  -26.2242  -38.8197   41.9295 P   0  0  2  0  0  5  0  0  0  0  0  0
  -26.4340  -39.2630   43.3474 O   0  0  0  0  0  0  0  0  0  0  0  0
  -27.5294  -38.2339   41.2143 O   0  0  0  0  0  0  0  0  0  0  0  0
  -25.1292  -37.6834   41.6993 O   0  0  0  0  0  0  0  0  0  0  0  0
  -25.4940  -36.1847   42.0897 P   0  0  0  0  0  5  0  0  0  0  0  0
  -24.2945  -35.4036   42.5231 O   0  0  0  0  0  0  0  0  0  0  0  0
  -26.5962  -36.3823   43.2313 O   0  0  0  0  0  0  0  0  0  0  0  0
  -26.3100  -35.5988   40.8411 O   0  0  0  0  0  0  0  0  0  0  0  0
  -25.3297  -34.8054   38.7392 C   0  0  0  0  0  0  0  0  0  0  0  0
  -25.9561  -35.9839   39.5214 C   0  0  0  0  0  0  0  0  0  0  0  0
  -24.9207  -35.2788   37.3259 C   0  0  0  0  0  0  0  0  0  0  0  0
  -26.3818  -33.6963   38.5675 C   0  0  0  0  0  0  0  0  0  0  0  0
  -24.0625  -34.2967   39.4780 C   0  0  1  0  0  0  0  0  0  0  0  0
  -23.0725  -35.3306   39.5552 O   0  0  0  0  0  0  0  0  0  0  0  0
  -23.4454  -33.0342   38.8467 C   0  0  0  0  0  0  0  0  0  0  0  0
  -23.8173  -31.9069   39.1609 O   0  0  0  0  0  0  0  0  0  0  0  0
  -22.4838  -33.2980   37.8910 N   0  0  0  0  0  0  0  0  0  0  0  0
  -22.3875  -32.4654   36.7018 C   0  0  0  0  0  0  0  0  0  0  0  0
  -21.5631  -31.2066   36.9348 C   0  0  0  0  0  0  0  0  0  0  0  0
  -20.7069  -30.9001   35.7251 C   0  0  0  0  0  0  0  0  0  0  0  0
  -21.1499  -30.8933   34.5822 O   0  0  0  0  0  0  0  0  0  0  0  0
  -19.4038  -30.5821   36.0346 N   0  0  0  0  0  0  0  0  0  0  0  0
  -18.2868  -31.0893   35.2503 C   0  0  0  0  0  0  0  0  0  0  0  0
  -18.0487  -30.2221   34.0156 C   0  0  0  0  0  0  0  0  0  0  0  0
  -17.3087  -31.1986   32.6752 S   0  0  0  0  0  0  0  0  0  0  0  0
  -15.6062  -30.9968   33.0753 C   0  0  0  0  0  0  0  0  0  0  0  0
  -15.2171  -30.8522   34.2255 O   0  0  0  0  0  0  0  0  0  0  0  0
  -14.6829  -31.0492   31.8942 C   0  0  0  0  0  0  0  0  0  0  0  0
  1  2  4  0
  2  3  4  0
  3  4  4  0
  4  5  4  0
  1  6  4  0
  5  6  4  0
  6  7  1  0
  5  8  4  0
  8  9  4  0
  4 10  4  0
  9 10  4  0
 11 10  1  6
 11 12  1  0
 12 13  1  1
 12 14  1  0
 14 15  1  1
 15 16  1  0
 16 17  2  0
 16 18  1  0
 16 19  1  0
 14 20  1  0
 11 21  1  0
 20 21  1  0
 20 22  1  6
 22 23  1  0
 23 24  1  0
 24 25  2  0
 24 26  1  6
 24 27  1  0
 27 28  1  0
 28 29  2  0
 28 30  1  0
 28 31  1  0
 31 33  1  0
 32 33  1  0
 32 34  1  0
 32 35  1  0
 32 36  1  0
 36 37  1  6
 36 38  1  0
 38 39  2  0
 38 40  1  0
 40 41  1  0
 41 42  1  0
 42 43  1  0
 43 44  2  0
 43 45  1  0
 45 46  1  0
 46 47  1  0
 47 48  1  0
 48 49  1  0
 49 50  2  0
 49 51  1  0
M  END
