1OYT_FSN_H_501
     RDKit          3D

 30 34  0  0  0  0  0  0  0  0999 V2000
   16.1432  -13.7367   21.8015 O   0  0  0  0  0  0  0  0  0  0  0  0
   17.1569  -13.1371   21.3915 C   0  0  0  0  0  0  0  0  0  0  0  0
   18.4686  -13.7055   21.3710 N   0  0  0  0  0  0  0  0  0  0  0  0
   19.0216  -14.7429   22.2280 C   0  0  0  0  0  0  0  0  0  0  0  0
   19.8736  -14.1440   23.3028 C   0  0  0  0  0  0  0  0  0  0  0  0
   19.3407  -13.7377   24.5161 C   0  0  0  0  0  0  0  0  0  0  0  0
   20.2095  -13.1943   25.4486 C   0  0  0  0  0  0  0  0  0  0  0  0
   21.5605  -13.0584   25.1869 C   0  0  0  0  0  0  0  0  0  0  0  0
   22.4027  -12.5227   26.1123 F   0  0  0  0  0  0  0  0  0  0  0  0
   22.0956  -13.4649   23.9720 C   0  0  0  0  0  0  0  0  0  0  0  0
   21.2407  -14.0074   23.0357 C   0  0  0  0  0  0  0  0  0  0  0  0
   19.1772  -13.0407   20.3037 C   0  0  0  0  0  0  0  0  0  0  0  0
   20.3890  -13.2439   19.9711 O   0  0  0  0  0  0  0  0  0  0  0  0
   18.2293  -12.0739   19.6637 C   0  0  1  0  0  0  0  0  0  0  0  0
   17.2278  -12.7616   18.7571 C   0  0  1  0  0  0  0  0  0  0  0  0
   15.9311  -12.1753   19.0103 N   0  0  0  0  0  0  0  0  0  0  0  0
   15.5252  -11.4641   17.8398 C   0  0  0  0  0  0  0  0  0  0  0  0
   16.6600  -11.4837   16.8468 C   0  0  0  0  0  0  0  0  0  0  0  0
   17.5587  -12.6011   17.3138 C   0  0  0  0  0  0  0  0  0  0  0  0
   16.0634  -11.2700   20.1351 C   0  0  1  0  0  0  0  0  0  0  0  0
   14.8772  -11.2029   20.9961 C   0  0  0  0  0  0  0  0  0  0  0  0
   14.5976  -10.0379   21.6761 C   0  0  0  0  0  0  0  0  0  0  0  0
   13.4739   -9.9512   22.5061 C   0  0  0  0  0  0  0  0  0  0  0  0
   12.6109  -11.0117   22.6771 C   0  0  0  0  0  0  0  0  0  0  0  0
   12.8902  -12.1788   21.9965 C   0  0  0  0  0  0  0  0  0  0  0  0
   14.0045  -12.2549   21.1775 C   0  0  0  0  0  0  0  0  0  0  0  0
   11.4476  -10.8923   23.5484 C   0  0  0  0  0  0  0  0  0  0  0  0
   10.5804  -11.8445   23.6201 N   0  0  0  0  0  0  0  0  0  0  0  0
   11.2198   -9.7269   24.3531 N   0  0  0  0  0  0  0  0  0  0  0  0
   17.3058  -11.7564   20.8407 C   0  0  1  0  0  0  0  0  0  0  0  0
  1  2  2  0
  2  3  1  0
  4  3  1  6
  4  5  1  0
  5  6  2  0
  6  7  1  0
  7  8  2  0
  8  9  1  0
  8 10  1  0
  5 11  1  0
 10 11  2  0
  3 12  1  0
 12 13  2  0
 14 12  1  1
 14 15  1  0
 15 16  1  6
 17 16  1  1
 18 17  1  6
 15 19  1  0
 19 18  1  1
 16 20  1  0
 20 21  1  1
 21 22  2  0
 22 23  1  0
 23 24  2  0
 24 25  1  0
 21 26  1  0
 25 26  2  0
 24 27  1  0
 27 28  2  0
 27 29  1  0
 30  2  1  6
 14 30  1  0
 20 30  1  0
M  CHG  1  28   1
M  END
$$$$
