
     RDKit          3D

 32 34  0  0  0  0  0  0  0  0999 V2000
   23.0067   20.5366   -4.9090 P   0  0  2  0  0  5  0  0  0  0  0  0
   24.5427   20.8913   -5.0682 O   0  0  0  0  0  0  0  0  0  0  0  0
   22.3597   19.7694   -3.2748 S   0  0  0  0  0  0  0  0  0  0  0  0
   22.6733   19.6950   -6.2263 O   0  0  0  0  0  0  0  0  0  0  0  0
   22.3242   21.9262   -5.3260 O   0  0  0  0  0  0  0  0  0  0  0  0
   25.5309   20.5758   -6.2667 P   0  0  1  0  0  5  0  0  0  0  0  0
   25.3218   19.1979   -6.8254 O   0  0  0  0  0  0  0  0  0  0  0  0
   25.1865   21.6899   -7.3583 O   0  0  0  0  0  0  0  0  0  0  0  0
   27.5162   22.3487   -5.4068 P   0  0  1  0  0  5  0  0  0  0  0  0
   28.3916   23.0308   -6.4080 O   0  0  0  0  0  0  0  0  0  0  0  0
   26.1744   23.1668   -5.1034 O   0  0  0  0  0  0  0  0  0  0  0  0
   27.0041   20.8936   -5.7755 O   0  0  0  0  0  0  0  0  0  0  0  0
   28.1563   22.2357   -3.9344 O   0  0  0  0  0  0  0  0  0  0  0  0
   27.2973   22.5149   -2.8375 C   0  0  0  0  0  0  0  0  0  0  0  0
   27.6119   23.8926   -2.2444 C   0  0  1  0  0  0  0  0  0  0  0  0
   29.0257   23.9995   -1.9724 O   0  0  0  0  0  0  0  0  0  0  0  0
   27.2815   25.0294   -3.2086 C   0  0  1  0  0  0  0  0  0  0  0  0
   27.0886   26.2665   -2.4943 O   0  0  0  0  0  0  0  0  0  0  0  0
   28.5606   25.1698   -4.0259 C   0  0  1  0  0  0  0  0  0  0  0  0
   28.6769   26.4912   -4.5611 O   0  0  0  0  0  0  0  0  0  0  0  0
   29.6282   24.8522   -2.9737 C   0  0  2  0  0  0  0  0  0  0  0  0
   30.8359   24.1960   -3.4307 N   0  0  0  0  0  0  0  0  0  0  0  0
   30.8656   23.2479   -4.4309 C   0  0  0  0  0  0  0  0  0  0  0  0
   32.0902   22.9984   -4.8496 N   0  0  0  0  0  0  0  0  0  0  0  0
   32.8768   23.8032   -4.0688 C   0  0  0  0  0  0  0  0  0  0  0  0
   34.2934   24.0745   -4.1432 C   0  0  0  0  0  0  0  0  0  0  0  0
   35.0316   23.7186   -5.0623 O   0  0  0  0  0  0  0  0  0  0  0  0
   34.7224   24.9231   -3.1357 N   0  0  0  0  0  0  0  0  0  0  0  0
   33.8777   25.5876   -2.2700 C   0  0  0  0  0  0  0  0  0  0  0  0
   34.4704   26.4937   -1.4513 N   0  0  0  0  0  0  0  0  0  0  0  0
   32.5860   25.4116   -2.2414 N   0  0  0  0  0  0  0  0  0  0  0  0
   32.1373   24.5129   -3.1502 C   0  0  0  0  0  0  0  0  0  0  0  0
  1  2  1  0
  1  3  2  0
  1  4  1  6
  1  5  1  0
  6  2  1  0
  6  7  2  0
  6  8  1  6
  9 10  2  0
  9 11  1  1
  6 12  1  0
  9 12  1  0
  9 13  1  0
 13 14  1  0
 15 14  1  6
 15 16  1  0
 15 17  1  0
 17 18  1  1
 17 19  1  0
 19 20  1  1
 16 21  1  0
 19 21  1  0
 21 22  1  6
 22 23  4  0
 23 24  4  0
 24 25  4  0
 25 26  4  0
 26 27  2  0
 26 28  4  0
 28 29  4  0
 29 30  1  0
 29 31  4  0
 22 32  4  0
 25 32  4  0
 31 32  4  0
M  END
