7OFK_VCH_A_601
     RDKit          3D

 35 37  0  0  0  0  0  0  0  0999 V2000
  -27.0792    1.6746   -9.1058 C   0  0  0  0  0  0  0  0  0  0  0  0
  -27.6908    2.1117  -10.3934 C   0  0  0  0  0  0  0  0  0  0  0  0
  -25.9961   -0.9295  -14.0220 C   0  0  0  0  0  0  0  0  0  0  0  0
  -26.2329   -1.0332  -15.3825 C   0  0  0  0  0  0  0  0  0  0  0  0
  -27.0494   -0.1155  -16.0133 C   0  0  0  0  0  0  0  0  0  0  0  0
  -27.6217    0.9073  -15.2481 C   0  0  0  0  0  0  0  0  0  0  0  0
  -27.3729    0.9871  -13.9116 C   0  0  0  0  0  0  0  0  0  0  0  0
  -27.8549    1.9628  -12.9029 C   0  0  2  0  0  0  0  0  0  0  0  0
  -27.3596    3.2853  -13.3097 C   0  0  0  0  0  0  0  0  0  0  0  0
  -27.5884    5.5418  -14.2090 C   0  0  0  0  0  0  0  0  0  0  0  0
  -26.2906    7.7628  -15.3741 C   0  0  0  0  0  0  0  0  0  0  0  0
  -25.6885    6.9906  -14.3722 C   0  0  0  0  0  0  0  0  0  0  0  0
  -26.3212    5.9102  -13.8063 C   0  0  0  0  0  0  0  0  0  0  0  0
  -25.5585    8.9053  -15.9346 C   0  0  1  0  0  0  0  0  0  0  0  0
  -26.2001   10.1626  -15.3696 C   0  0  1  0  0  0  0  0  0  0  0  0
  -26.3035   -3.8725  -15.9042 C   0  0  0  0  0  0  0  0  0  0  0  0
  -28.5304    3.0331  -10.3774 O   0  0  0  0  0  0  0  0  0  0  0  0
  -27.3376    1.5025  -11.6302 N   0  0  0  0  0  0  0  0  0  0  0  0
  -26.4458    0.3736  -11.8312 C   0  0  0  0  0  0  0  0  0  0  0  0
  -26.5510    0.0656  -13.2689 C   0  0  0  0  0  0  0  0  0  0  0  0
  -26.0989    3.4189  -13.4297 O   0  0  0  0  0  0  0  0  0  0  0  0
  -28.1785    4.4099  -13.5749 N   0  0  0  0  0  0  0  0  0  0  0  0
  -28.1980    6.2721  -15.1792 C   0  0  0  0  0  0  0  0  0  0  0  0
  -27.5525    7.3654  -15.7489 C   0  0  0  0  0  0  0  0  0  0  0  0
  -24.2276    8.8132  -15.4677 O   0  0  0  0  0  0  0  0  0  0  0  0
  -25.5218   11.2480  -15.9101 F   0  0  0  0  0  0  0  0  0  0  0  0
  -27.5119   10.2406  -15.7909 F   0  0  0  0  0  0  0  0  0  0  0  0
  -26.0518   10.1538  -14.0102 F   0  0  0  0  0  0  0  0  0  0  0  0
  -25.4740    8.9488  -17.4257 C   0  0  2  0  0  0  0  0  0  0  0  0
  -24.9920    7.6903  -17.8287 F   0  0  0  0  0  0  0  0  0  0  0  0
  -24.5644    9.8736  -17.9147 F   0  0  0  0  0  0  0  0  0  0  0  0
  -26.7145    9.1338  -17.9752 F   0  0  0  0  0  0  0  0  0  0  0  0
  -25.4644   -2.3545  -16.2444 S   0  0  1  0  0  0  0  0  0  0  0  0
  -25.4723   -2.0241  -17.7153 O   0  0  0  0  0  0  0  0  0  0  0  0
  -24.0184   -2.4586  -15.8105 O   0  0  0  0  0  0  0  0  0  0  0  0
  1  2  1  0
  3  4  2  0
  4  5  1  0
  5  6  2  0
  6  7  1  0
  7  8  1  0
  8  9  1  6
 11 12  2  0
 12 13  1  0
 10 13  2  0
 11 14  1  0
 14 15  1  0
  2 17  2  0
  8 18  1  0
  2 18  1  0
 18 19  1  0
  3 20  1  0
  7 20  2  0
 19 20  1  0
  9 21  2  0
 10 22  1  0
  9 22  1  0
 10 23  1  0
 11 24  1  0
 23 24  2  0
 14 25  1  1
 15 26  1  6
 15 27  1  0
 15 28  1  0
 14 29  1  0
 29 30  1  6
 29 31  1  0
 29 32  1  0
 33 16  1  6
  4 33  1  0
 33 34  2  0
 33 35  2  0
M  END
$$$$
