7LOE_Y84_A_201
     RDKit          3D

 18 19  0  0  0  0  0  0  0  0999 V2000
   40.1991  -19.4528   11.3226 C   0  0  0  0  0  0  0  0  0  0  0  0
   39.4310  -20.3538   13.4783 C   0  0  0  0  0  0  0  0  0  0  0  0
   39.6989  -20.8140   14.7611 C   0  0  0  0  0  0  0  0  0  0  0  0
   41.0164  -20.8582   15.2195 C   0  0  0  0  0  0  0  0  0  0  0  0
   42.0552  -20.4384   14.3955 C   0  0  0  0  0  0  0  0  0  0  0  0
   41.7780  -19.9651   13.0795 C   0  0  0  0  0  0  0  0  0  0  0  0
   42.8336  -19.5284   12.2266 C   0  0  0  0  0  0  0  0  0  0  0  0
   42.5475  -19.0680   10.9458 C   0  0  0  0  0  0  0  0  0  0  0  0
   41.2287  -19.0265   10.4940 C   0  0  0  0  0  0  0  0  0  0  0  0
   40.4910  -19.9243   12.6336 C   0  0  0  0  0  0  0  0  0  0  0  0
   38.1523  -20.3021   13.0076 F   0  0  0  0  0  0  0  0  0  0  0  0
   39.2232  -19.4277   10.9881 H   0  0  0  0  0  0  0  0  0  0  0  0
   38.9270  -21.1221   15.3727 H   0  0  0  0  0  0  0  0  0  0  0  0
   41.2200  -21.2026   16.1708 H   0  0  0  0  0  0  0  0  0  0  0  0
   43.0285  -20.4696   14.7373 H   0  0  0  0  0  0  0  0  0  0  0  0
   43.8100  -19.5540   12.5596 H   0  0  0  0  0  0  0  0  0  0  0  0
   43.3131  -18.7562   10.3281 H   0  0  0  0  0  0  0  0  0  0  0  0
   41.0182  -18.6795    9.5451 H   0  0  0  0  0  0  0  0  0  0  0  0
  2  3  4  0
  3  4  4  0
  4  5  4  0
  5  6  4  0
  6  7  4  0
  7  8  4  0
  8  9  4  0
  1  9  4  0
  6 10  4  0
  2 10  4  0
  1 10  4  0
  2 11  1  0
  1 12  1  0
  3 13  1  0
  4 14  1  0
  5 15  1  0
  7 16  1  0
  8 17  1  0
  9 18  1  0
M  END
