1HP0_AD3_A_1315
     RDKit          3D

 19 21  0  0  0  0  0  0  0  0999 V2000
   15.4024   24.3697    9.1674 O   0  0  0  0  0  0  0  0  0  0  0  0
   15.3949   25.7531    8.8883 C   0  0  0  0  0  0  0  0  0  0  0  0
   15.1654   26.4932   10.2020 C   0  0  1  0  0  0  0  0  0  0  0  0
   15.5109   25.7286   11.3115 O   0  0  0  0  0  0  0  0  0  0  0  0
   16.0867   27.6863   10.1856 C   0  0  1  0  0  0  0  0  0  0  0  0
   15.3584   28.7996   10.6010 O   0  0  0  0  0  0  0  0  0  0  0  0
   17.0301   27.3402   11.3223 C   0  0  1  0  0  0  0  0  0  0  0  0
   17.5767   28.4537   11.9285 O   0  0  0  0  0  0  0  0  0  0  0  0
   16.0050   26.6497   12.2025 C   0  0  2  0  0  0  0  0  0  0  0  0
   16.4977   26.1374   13.4199 N   0  0  0  0  0  0  0  0  0  0  0  0
   16.9545   26.8140   14.4885 C   0  0  0  0  0  0  0  0  0  0  0  0
   17.3317   25.9439   15.4456 N   0  0  0  0  0  0  0  0  0  0  0  0
   17.1174   24.7009   14.9924 C   0  0  0  0  0  0  0  0  0  0  0  0
   17.3314   23.4477   15.5751 C   0  0  0  0  0  0  0  0  0  0  0  0
   17.8742   23.3446   16.8921 N   0  0  0  0  0  0  0  0  0  0  0  0
   17.0117   22.3353   14.8604 N   0  0  0  0  0  0  0  0  0  0  0  0
   16.4966   22.4215   13.6109 C   0  0  0  0  0  0  0  0  0  0  0  0
   16.2837   23.6601   13.0319 C   0  0  0  0  0  0  0  0  0  0  0  0
   16.5999   24.8310   13.7349 C   0  0  0  0  0  0  0  0  0  0  0  0
  1  2  1  0
  3  2  1  6
  3  4  1  0
  3  5  1  0
  5  6  1  1
  5  7  1  0
  7  8  1  1
  4  9  1  0
  7  9  1  0
  9 10  1  1
 10 11  1  0
 11 12  2  0
 12 13  1  0
 13 14  2  0
 14 15  1  0
 14 16  1  0
 16 17  2  0
 17 18  1  0
 10 19  1  0
 13 19  1  0
 18 19  2  0
M  END
$$$$
