1HP0_AD3_A_1315
     RDKit          3D

 19 21  0  0  0  0  0  0  0  0999 V2000
   24.0100   27.8192   43.3777 O   0  0  0  0  0  0  0  0  0  0  0  0
   25.2168   28.2200   42.7657 C   0  0  0  0  0  0  0  0  0  0  0  0
   25.2362   27.6473   41.3522 C   0  0  1  0  0  0  0  0  0  0  0  0
   23.9582   27.4270   40.8491 O   0  0  0  0  0  0  0  0  0  0  0  0
   25.8793   28.6931   40.4774 C   0  0  1  0  0  0  0  0  0  0  0  0
   26.8127   28.0578   39.6604 O   0  0  0  0  0  0  0  0  0  0  0  0
   24.7159   29.0788   39.5831 C   0  0  1  0  0  0  0  0  0  0  0  0
   25.1164   29.5388   38.3445 O   0  0  0  0  0  0  0  0  0  0  0  0
   24.0822   27.7022   39.5092 C   0  0  2  0  0  0  0  0  0  0  0  0
   22.9014   27.6184   38.7438 N   0  0  0  0  0  0  0  0  0  0  0  0
   21.6406   27.4239   39.1694 C   0  0  0  0  0  0  0  0  0  0  0  0
   20.8053   27.4082   38.1122 N   0  0  0  0  0  0  0  0  0  0  0  0
   21.5303   27.5933   37.0002 C   0  0  0  0  0  0  0  0  0  0  0  0
   21.1658   27.6613   35.6518 C   0  0  0  0  0  0  0  0  0  0  0  0
   19.7985   27.5222   35.2633 N   0  0  0  0  0  0  0  0  0  0  0  0
   22.1404   27.8622   34.7242 N   0  0  0  0  0  0  0  0  0  0  0  0
   23.4398   27.9954   35.0815 C   0  0  0  0  0  0  0  0  0  0  0  0
   23.8034   27.9285   36.4150 C   0  0  0  0  0  0  0  0  0  0  0  0
   22.8295   27.7227   37.4020 C   0  0  0  0  0  0  0  0  0  0  0  0
  1  2  1  0
  3  2  1  1
  3  4  1  0
  3  5  1  0
  5  6  1  6
  5  7  1  0
  7  8  1  6
  4  9  1  0
  7  9  1  0
  9 10  1  1
 10 11  1  0
 11 12  2  0
 12 13  1  0
 13 14  2  0
 14 15  1  0
 14 16  1  0
 16 17  2  0
 17 18  1  0
 10 19  1  0
 13 19  1  0
 18 19  2  0
M  END
$$$$
