1HP0_AD3_A_1315
     RDKit          3D

 19 21  0  0  0  0  0  0  0  0999 V2000
   42.2820   41.9116   15.8287 O   0  0  0  0  0  0  0  0  0  0  0  0
   43.3488   42.4620   16.5708 C   0  0  0  0  0  0  0  0  0  0  0  0
   42.9332   43.8593   17.0195 C   0  0  1  0  0  0  0  0  0  0  0  0
   41.5781   43.9405   17.3226 O   0  0  0  0  0  0  0  0  0  0  0  0
   43.6870   44.1392   18.2947 C   0  0  1  0  0  0  0  0  0  0  0  0
   44.2184   45.4247   18.2087 O   0  0  0  0  0  0  0  0  0  0  0  0
   42.5485   44.2098   19.2952 C   0  0  1  0  0  0  0  0  0  0  0  0
   42.8319   45.0159   20.3797 O   0  0  0  0  0  0  0  0  0  0  0  0
   41.5286   44.8362   18.3626 C   0  0  2  0  0  0  0  0  0  0  0  0
   40.2568   45.0700   18.9238 N   0  0  0  0  0  0  0  0  0  0  0  0
   39.2217   44.2187   19.0342 C   0  0  0  0  0  0  0  0  0  0  0  0
   38.1880   44.8409   19.6341 N   0  0  0  0  0  0  0  0  0  0  0  0
   38.5579   46.0989   19.9117 C   0  0  0  0  0  0  0  0  0  0  0  0
   37.8764   47.1564   20.5225 C   0  0  0  0  0  0  0  0  0  0  0  0
   36.5331   46.9861   20.9765 N   0  0  0  0  0  0  0  0  0  0  0  0
   38.5210   48.3448   20.6726 N   0  0  0  0  0  0  0  0  0  0  0  0
   39.7946   48.5172   20.2458 C   0  0  0  0  0  0  0  0  0  0  0  0
   40.4714   47.4726   19.6411 C   0  0  0  0  0  0  0  0  0  0  0  0
   39.8429   46.2317   19.4675 C   0  0  0  0  0  0  0  0  0  0  0  0
  1  2  1  0
  3  2  1  1
  3  4  1  0
  3  5  1  0
  5  6  1  6
  5  7  1  0
  7  8  1  1
  4  9  1  0
  7  9  1  0
  9 10  1  1
 10 11  1  0
 11 12  2  0
 12 13  1  0
 13 14  2  0
 14 15  1  0
 14 16  1  0
 16 17  2  0
 17 18  1  0
 10 19  1  0
 13 19  1  0
 18 19  2  0
M  END
$$$$
