1HP0_AD3_A_1315
     RDKit          3D

 19 21  0  0  0  0  0  0  0  0999 V2000
   15.2697   23.9752    9.5361 O   0  0  0  0  0  0  0  0  0  0  0  0
   15.4448   25.3332    9.1942 C   0  0  0  0  0  0  0  0  0  0  0  0
   15.2255   26.1639   10.4544 C   0  0  1  0  0  0  0  0  0  0  0  0
   15.6593   25.5123   11.6042 O   0  0  0  0  0  0  0  0  0  0  0  0
   16.0741   27.4006   10.3027 C   0  0  1  0  0  0  0  0  0  0  0  0
   15.2994   28.5023   10.6611 O   0  0  0  0  0  0  0  0  0  0  0  0
   17.0811   27.2005   11.4198 C   0  0  1  0  0  0  0  0  0  0  0  0
   17.5856   28.3880   11.9111 O   0  0  0  0  0  0  0  0  0  0  0  0
   16.1343   26.5286   12.3967 C   0  0  2  0  0  0  0  0  0  0  0  0
   16.7046   26.1448   13.6274 N   0  0  0  0  0  0  0  0  0  0  0  0
   17.0755   26.9259   14.6573 C   0  0  0  0  0  0  0  0  0  0  0  0
   17.5777   26.1604   15.6458 N   0  0  0  0  0  0  0  0  0  0  0  0
   17.5305   24.8801   15.2519 C   0  0  0  0  0  0  0  0  0  0  0  0
   17.9195   23.6960   15.8861 C   0  0  0  0  0  0  0  0  0  0  0  0
   18.4845   23.7286   17.1974 N   0  0  0  0  0  0  0  0  0  0  0  0
   17.7474   22.5186   15.2269 N   0  0  0  0  0  0  0  0  0  0  0  0
   17.2127   22.4761   13.9834 C   0  0  0  0  0  0  0  0  0  0  0  0
   16.8269   23.6462   13.3534 C   0  0  0  0  0  0  0  0  0  0  0  0
   16.9873   24.8804   13.9985 C   0  0  0  0  0  0  0  0  0  0  0  0
  1  2  1  0
  3  2  1  6
  3  4  1  0
  3  5  1  0
  5  6  1  1
  5  7  1  0
  7  8  1  1
  4  9  1  0
  7  9  1  0
  9 10  1  1
 10 11  1  0
 11 12  2  0
 12 13  1  0
 13 14  2  0
 14 15  1  0
 14 16  1  0
 16 17  2  0
 17 18  1  0
 10 19  1  0
 13 19  1  0
 18 19  2  0
M  END
$$$$
