1HP0_AD3_A_1315
     RDKit          3D

 19 21  0  0  0  0  0  0  0  0999 V2000
   32.0754   55.2259   19.6946 O   0  0  0  0  0  0  0  0  0  0  0  0
   31.2104   54.9445   18.6155 C   0  0  0  0  0  0  0  0  0  0  0  0
   31.9892   54.1198   17.5957 C   0  0  1  0  0  0  0  0  0  0  0  0
   32.8254   53.1834   18.1948 O   0  0  0  0  0  0  0  0  0  0  0  0
   30.9663   53.3507   16.7991 C   0  0  1  0  0  0  0  0  0  0  0  0
   31.2946   53.4660   15.4496 O   0  0  0  0  0  0  0  0  0  0  0  0
   31.2961   51.9257   17.2024 C   0  0  1  0  0  0  0  0  0  0  0  0
   30.9660   50.9999   16.2327 O   0  0  0  0  0  0  0  0  0  0  0  0
   32.7959   52.1175   17.3291 C   0  0  2  0  0  0  0  0  0  0  0  0
   33.5224   50.9751   17.7220 N   0  0  0  0  0  0  0  0  0  0  0  0
   33.6851   50.4715   18.9583 C   0  0  0  0  0  0  0  0  0  0  0  0
   34.4533   49.3662   18.8974 N   0  0  0  0  0  0  0  0  0  0  0  0
   34.7875   49.1561   17.6166 C   0  0  0  0  0  0  0  0  0  0  0  0
   35.5602   48.1626   17.0070 C   0  0  0  0  0  0  0  0  0  0  0  0
   36.1559   47.1266   17.7891 N   0  0  0  0  0  0  0  0  0  0  0  0
   35.7297   48.2069   15.6580 N   0  0  0  0  0  0  0  0  0  0  0  0
   35.1695   49.1846   14.9069 C   0  0  0  0  0  0  0  0  0  0  0  0
   34.4044   50.1689   15.5073 C   0  0  0  0  0  0  0  0  0  0  0  0
   34.2054   50.1592   16.8949 C   0  0  0  0  0  0  0  0  0  0  0  0
  1  2  1  0
  3  2  1  1
  3  4  1  0
  3  5  1  0
  5  6  1  6
  5  7  1  0
  7  8  1  6
  4  9  1  0
  7  9  1  0
  9 10  1  1
 10 11  1  0
 11 12  2  0
 12 13  1  0
 13 14  2  0
 14 15  1  0
 14 16  1  0
 16 17  2  0
 17 18  1  0
 10 19  1  0
 13 19  1  0
 18 19  2  0
M  END
$$$$
