1HP0_AD3_A_1315
     RDKit          3D

 19 21  0  0  0  0  0  0  0  0999 V2000
   15.4182   24.0235    9.3977 O   0  0  0  0  0  0  0  0  0  0  0  0
   15.4715   25.3970    9.0777 C   0  0  0  0  0  0  0  0  0  0  0  0
   15.2260   26.1850   10.3604 C   0  0  1  0  0  0  0  0  0  0  0  0
   15.6713   25.5112   11.4930 O   0  0  0  0  0  0  0  0  0  0  0  0
   16.0438   27.4465   10.2488 C   0  0  1  0  0  0  0  0  0  0  0  0
   15.2400   28.5174   10.6351 O   0  0  0  0  0  0  0  0  0  0  0  0
   17.0508   27.2392   11.3646 C   0  0  1  0  0  0  0  0  0  0  0  0
   17.5231   28.4242   11.8927 O   0  0  0  0  0  0  0  0  0  0  0  0
   16.1171   26.5156   12.3169 C   0  0  2  0  0  0  0  0  0  0  0  0
   16.6917   26.1106   13.5388 N   0  0  0  0  0  0  0  0  0  0  0  0
   17.1120   26.8775   14.5604 C   0  0  0  0  0  0  0  0  0  0  0  0
   17.5986   26.0935   15.5423 N   0  0  0  0  0  0  0  0  0  0  0  0
   17.4917   24.8156   15.1523 C   0  0  0  0  0  0  0  0  0  0  0  0
   17.8419   23.6175   15.7827 C   0  0  0  0  0  0  0  0  0  0  0  0
   18.4299   23.6289   17.0843 N   0  0  0  0  0  0  0  0  0  0  0  0
   17.6101   22.4471   15.1294 N   0  0  0  0  0  0  0  0  0  0  0  0
   17.0532   22.4247   13.8952 C   0  0  0  0  0  0  0  0  0  0  0  0
   16.7057   23.6087   13.2689 C   0  0  0  0  0  0  0  0  0  0  0  0
   16.9280   24.8362   13.9082 C   0  0  0  0  0  0  0  0  0  0  0  0
  1  2  1  0
  3  2  1  6
  3  4  1  0
  3  5  1  0
  5  6  1  1
  5  7  1  0
  7  8  1  1
  4  9  1  0
  7  9  1  0
  9 10  1  1
 10 11  1  0
 11 12  2  0
 12 13  1  0
 13 14  2  0
 14 15  1  0
 14 16  1  0
 16 17  2  0
 17 18  1  0
 10 19  1  0
 13 19  1  0
 18 19  2  0
M  END
$$$$
