7MEU_MGP_A_1000
     RDKit          3D

 33 35  0  0  0  0  0  0  0  0999 V2000
   -9.6766   15.3361   51.0648 P   0  0  2  0  0  0  0  0  0  0  0  0
  -10.8954   16.5197   51.1164 O   0  0  0  0  0  0  0  0  0  0  0  0
  -10.2411   14.0031   51.4741 O   0  0  0  0  0  0  0  0  0  0  0  0
   -8.3651   15.7666   52.0208 O   0  0  0  0  0  0  0  0  0  0  0  0
   -9.1368   15.2975   49.4419 O   0  0  0  0  0  0  0  0  0  0  0  0
   -7.6084   17.1792   51.4870 P   0  0  2  0  0  0  0  0  0  0  0  0
   -6.5732   16.8954   50.1732 O   0  0  0  0  0  0  0  0  0  0  0  0
   -6.7492   17.6804   52.6341 O   0  0  0  0  0  0  0  0  0  0  0  0
   -8.7037   18.3943   51.0763 O   0  0  0  0  0  0  0  0  0  0  0  0
   -7.8759   19.5653   50.1788 P   0  0  2  0  0  0  0  0  0  0  0  0
   -8.3000   19.3248   48.5406 O   0  0  0  0  0  0  0  0  0  0  0  0
   -6.3830   19.4346   50.3022 O   0  0  0  0  0  0  0  0  0  0  0  0
   -8.4013   21.1361   50.5557 O   0  0  0  0  0  0  0  0  0  0  0  0
  -10.0776   15.9585   48.6916 C   0  0  0  0  0  0  0  0  0  0  0  0
  -11.1501   15.0571   48.1266 C   0  0  1  0  0  0  0  0  0  0  0  0
  -11.9127   14.4321   49.0861 O   0  0  0  0  0  0  0  0  0  0  0  0
  -12.0953   15.8618   47.2599 C   0  0  1  0  0  0  0  0  0  0  0  0
  -11.8881   15.4637   45.9275 O   0  0  0  0  0  0  0  0  0  0  0  0
  -13.4610   15.3543   47.7388 C   0  0  1  0  0  0  0  0  0  0  0  0
  -14.3287   15.1871   46.6648 O   0  0  0  0  0  0  0  0  0  0  0  0
  -13.0511   14.0453   48.3810 C   0  0  2  0  0  0  0  0  0  0  0  0
  -14.0583   13.4596   49.2084 N   0  0  0  0  0  0  0  0  0  0  0  0
  -14.0676   13.5213   50.5526 C   0  0  0  0  0  0  0  0  0  0  0  0
  -15.1510   12.8707   51.0351 N   0  0  0  0  0  0  0  0  0  0  0  0
  -15.5663   12.6811   52.4096 C   0  0  0  0  0  0  0  0  0  0  0  0
  -15.8407   12.3886   49.9911 C   0  0  0  0  0  0  0  0  0  0  0  0
  -17.0080   11.6548   49.8586 C   0  0  0  0  0  0  0  0  0  0  0  0
  -17.6274   11.3217   50.9057 O   0  0  0  0  0  0  0  0  0  0  0  0
  -17.4947   11.2914   48.6578 N   0  0  0  0  0  0  0  0  0  0  0  0
  -16.7883   11.6771   47.5788 C   0  0  0  0  0  0  0  0  0  0  0  0
  -17.2352   11.3331   46.2724 N   0  0  0  0  0  0  0  0  0  0  0  0
  -15.6517   12.3900   47.6761 N   0  0  0  0  0  0  0  0  0  0  0  0
  -15.1479   12.7639   48.8718 C   0  0  0  0  0  0  0  0  0  0  0  0
  1  2  1  6
  1  3  2  0
  1  4  1  0
  1  5  1  0
  4  6  1  0
  6  7  1  6
  6  8  2  0
  6  9  1  0
  9 10  1  0
 10 11  1  6
 10 12  2  0
 10 13  1  0
  5 14  1  0
 15 14  1  1
 15 16  1  0
 15 17  1  0
 17 18  1  6
 17 19  1  0
 19 20  1  6
 16 21  1  0
 19 21  1  0
 21 22  1  1
 22 23  1  0
 23 24  2  0
 24 25  1  0
 24 26  1  0
 26 27  1  0
 27 28  2  0
 27 29  1  0
 29 30  1  0
 30 31  1  0
 30 32  2  0
 22 33  1  0
 26 33  2  0
 32 33  1  0
M  CHG  1  24   1
M  END
$$$$
