8FAV_4Y5_B_602
     RDKit          3D

 33 36  0  0  0  0  0  0  0  0999 V2000
   -8.7875    7.7319   -7.3848 C   0  0  0  0  0  0  0  0  0  0  0  0
   -9.6790    8.6983   -7.8741 C   0  0  0  0  0  0  0  0  0  0  0  0
  -10.6137    9.3026   -7.0664 C   0  0  0  0  0  0  0  0  0  0  0  0
  -10.6106    8.8877   -5.7371 C   0  0  0  0  0  0  0  0  0  0  0  0
   -9.7472    7.9457   -5.2429 C   0  0  0  0  0  0  0  0  0  0  0  0
  -11.6029    9.5986   -5.1111 C   0  0  0  0  0  0  0  0  0  0  0  0
  -11.8146   10.8948   -8.4347 C   0  0  0  0  0  0  0  0  0  0  0  0
  -14.6776   13.8430   -9.3946 C   0  0  0  0  0  0  0  0  0  0  0  0
  -15.0377   12.5599   -9.0994 C   0  0  0  0  0  0  0  0  0  0  0  0
   -9.7222    9.4537   -3.1368 F   0  0  0  0  0  0  0  0  0  0  0  0
  -11.0358    9.5103   -2.7629 C   0  0  0  0  0  0  0  0  0  0  0  0
  -11.3345    9.4935   -1.4171 C   0  0  0  0  0  0  0  0  0  0  0  0
  -12.6554    9.5503   -1.0301 C   0  0  0  0  0  0  0  0  0  0  0  0
  -12.9552    9.5300    0.4083 C   0  0  0  0  0  0  0  0  0  0  0  0
  -11.9483    9.4768    1.3684 O   0  0  0  0  0  0  0  0  0  0  0  0
  -14.1679    9.5629    0.7476 O   0  0  0  0  0  0  0  0  0  0  0  0
  -13.6562    9.6227   -1.9807 C   0  0  0  0  0  0  0  0  0  0  0  0
  -13.3708    9.6407   -3.3466 C   0  0  0  0  0  0  0  0  0  0  0  0
  -12.0491    9.5835   -3.7249 C   0  0  0  0  0  0  0  0  0  0  0  0
   -9.8044    7.5994   -3.9429 F   0  0  0  0  0  0  0  0  0  0  0  0
   -8.8287    7.3607   -6.0647 C   0  0  0  0  0  0  0  0  0  0  0  0
  -12.1288   10.3696   -6.0505 N   0  0  0  0  0  0  0  0  0  0  0  0
  -11.5912   10.2473   -7.2367 N   0  0  0  0  0  0  0  0  0  0  0  0
  -11.0726   10.4465   -9.4303 O   0  0  0  0  0  0  0  0  0  0  0  0
  -12.6720   11.9588   -8.8574 C   0  0  0  0  0  0  0  0  0  0  0  0
  -14.0489   11.6524   -8.8394 C   0  0  0  0  0  0  0  0  0  0  0  0
  -14.5803   10.0032   -8.4663 Cl  0  0  0  0  0  0  0  0  0  0  0  0
  -13.3541   14.1649   -9.4188 C   0  0  0  0  0  0  0  0  0  0  0  0
  -12.3213   13.2488   -9.1560 C   0  0  0  0  0  0  0  0  0  0  0  0
  -10.9646   13.7683   -9.2740 C   0  0  2  0  0  0  0  0  0  0  0  0
  -10.2745   13.0491  -10.2901 F   0  0  0  0  0  0  0  0  0  0  0  0
  -10.2001   13.5468   -8.1294 F   0  0  0  0  0  0  0  0  0  0  0  0
  -10.9287   15.0705   -9.6072 F   0  0  0  0  0  0  0  0  0  0  0  0
  1  2  2  0
  2  3  1  0
  3  4  2  0
  4  5  1  0
  4  6  1  0
  8  9  2  0
 10 11  1  0
 11 12  2  0
 12 13  1  0
 13 14  1  0
 14 15  1  0
 14 16  2  0
 13 17  2  0
 17 18  1  0
  6 19  1  0
 18 19  2  0
 11 19  1  0
  5 20  1  0
  1 21  1  0
  5 21  2  0
  6 22  2  0
  3 23  1  0
  7 23  1  0
 22 23  1  0
  7 24  2  0
  7 25  1  0
 25 26  2  0
  9 26  1  0
 26 27  1  0
  8 28  1  0
 25 29  1  0
 28 29  2  0
 29 30  1  0
 30 31  1  6
 30 32  1  0
 30 33  1  0
M  END
$$$$
