6YRV_PJ8_AAA_802
     RDKit          3D

 53 52  0  0  0  0  0  0  0  0999 V2000
   24.9567   38.2260   24.0434 C   0  0  1  0  0  0  0  0  0  0  0  0
   24.3213   37.9287   22.6865 C   0  0  2  0  0  0  0  0  0  0  0  0
   23.7082   36.5206   22.6018 C   0  0  1  0  0  0  0  0  0  0  0  0
   24.1752   35.5729   23.7269 C   0  0  2  0  0  0  0  0  0  0  0  0
   25.0980   34.4611   23.2061 C   0  0  1  0  0  0  0  0  0  0  0  0
   25.3247   33.3825   24.2755 C   0  0  2  0  0  0  0  0  0  0  0  0
   24.4970   33.6165   25.5518 C   0  0  1  0  0  0  0  0  0  0  0  0
   23.0852   34.1721   25.2746 C   0  0  2  0  0  0  0  0  0  0  0  0
   21.9828   33.2300   25.7923 C   0  0  2  0  0  0  0  0  0  0  0  0
   20.5898   33.8772   25.7644 C   0  0  2  0  0  0  0  0  0  0  0  0
   19.8633   33.6346   24.4315 C   0  0  1  0  0  0  0  0  0  0  0  0
   18.6536   34.5683   24.2834 C   0  0  2  0  0  0  0  0  0  0  0  0
   18.0540   34.5555   22.8645 C   0  0  1  0  0  0  0  0  0  0  0  0
   16.8616   33.6006   22.6653 C   0  0  1  0  0  0  0  0  0  0  0  0
   15.5631   34.1195   23.3060 C   0  0  2  0  0  0  0  0  0  0  0  0
   14.4083   33.1126   23.1899 C   0  0  2  0  0  0  0  0  0  0  0  0
   13.5822   33.3033   21.9179 C   0  0  1  0  0  0  0  0  0  0  0  0
   24.4269   39.0622   24.5455 H   0  0  0  0  0  0  0  0  0  0  0  0
   24.9351   37.3228   24.6900 H   0  0  0  0  0  0  0  0  0  0  0  0
   26.0143   38.5318   23.8962 H   0  0  0  0  0  0  0  0  0  0  0  0
   25.1092   38.0135   21.9068 H   0  0  0  0  0  0  0  0  0  0  0  0
   23.5482   38.6953   22.4628 H   0  0  0  0  0  0  0  0  0  0  0  0
   22.6054   36.6396   22.6867 H   0  0  0  0  0  0  0  0  0  0  0  0
   23.8993   36.0818   21.5975 H   0  0  0  0  0  0  0  0  0  0  0  0
   23.2780   35.0946   24.1782 H   0  0  0  0  0  0  0  0  0  0  0  0
   24.6827   36.1434   24.5353 H   0  0  0  0  0  0  0  0  0  0  0  0
   24.6246   33.9985   22.3135 H   0  0  0  0  0  0  0  0  0  0  0  0
   26.0760   34.8897   22.9059 H   0  0  0  0  0  0  0  0  0  0  0  0
   26.4048   33.3365   24.5372 H   0  0  0  0  0  0  0  0  0  0  0  0
   25.0373   32.3925   23.8587 H   0  0  0  0  0  0  0  0  0  0  0  0
   24.4496   32.6791   26.1488 H   0  0  0  0  0  0  0  0  0  0  0  0
   25.0473   34.3570   26.1722 H   0  0  0  0  0  0  0  0  0  0  0  0
   22.9649   34.3768   24.1910 H   0  0  0  0  0  0  0  0  0  0  0  0
   22.9737   35.1481   25.7957 H   0  0  0  0  0  0  0  0  0  0  0  0
   22.2238   32.9585   26.8438 H   0  0  0  0  0  0  0  0  0  0  0  0
   21.9608   32.2817   25.2148 H   0  0  0  0  0  0  0  0  0  0  0  0
   20.6727   34.9685   25.9616 H   0  0  0  0  0  0  0  0  0  0  0  0
   19.9881   33.4295   26.5856 H   0  0  0  0  0  0  0  0  0  0  0  0
   20.5602   33.8070   23.5846 H   0  0  0  0  0  0  0  0  0  0  0  0
   19.5161   32.5796   24.3983 H   0  0  0  0  0  0  0  0  0  0  0  0
   18.9731   35.6104   24.5047 H   0  0  0  0  0  0  0  0  0  0  0  0
   17.8755   34.3026   25.0301 H   0  0  0  0  0  0  0  0  0  0  0  0
   17.7344   35.5891   22.6068 H   0  0  0  0  0  0  0  0  0  0  0  0
   18.8523   34.2745   22.1433 H   0  0  0  0  0  0  0  0  0  0  0  0
   16.7113   33.4900   21.5711 H   0  0  0  0  0  0  0  0  0  0  0  0
   17.1068   32.5923   23.0616 H   0  0  0  0  0  0  0  0  0  0  0  0
   15.2698   35.0881   22.8450 H   0  0  0  0  0  0  0  0  0  0  0  0
   15.7383   34.2977   24.3878 H   0  0  0  0  0  0  0  0  0  0  0  0
   13.7343   33.2502   24.0631 H   0  0  0  0  0  0  0  0  0  0  0  0
   14.7999   32.0723   23.2296 H   0  0  0  0  0  0  0  0  0  0  0  0
   13.2818   34.3649   21.7947 H   0  0  0  0  0  0  0  0  0  0  0  0
   14.1927   33.0146   21.0366 H   0  0  0  0  0  0  0  0  0  0  0  0
   12.6754   32.6615   21.9440 H   0  0  0  0  0  0  0  0  0  0  0  0
  1  2  1  0
  2  3  1  0
  3  4  1  0
  4  5  1  0
  5  6  1  0
  6  7  1  0
  7  8  1  0
  8  9  1  0
  9 10  1  0
 10 11  1  0
 11 12  1  0
 12 13  1  0
 13 14  1  0
 14 15  1  0
 15 16  1  0
 16 17  1  0
  1 18  1  1
  1 19  1  0
  1 20  1  0
  2 21  1  6
  2 22  1  0
  3 23  1  1
  3 24  1  0
  4 25  1  1
  4 26  1  0
  5 27  1  6
  5 28  1  0
  6 29  1  1
  6 30  1  0
  7 31  1  1
  7 32  1  0
  8 33  1  6
  8 34  1  0
  9 35  1  1
  9 36  1  0
 10 37  1  1
 10 38  1  0
 11 39  1  6
 11 40  1  0
 12 41  1  1
 12 42  1  0
 13 43  1  6
 13 44  1  0
 14 45  1  6
 14 46  1  0
 15 47  1  6
 15 48  1  0
 16 49  1  1
 16 50  1  0
 17 51  1  6
 17 52  1  0
 17 53  1  0
M  END
