1K3U_IAD_A_801
     RDKit          3D

 21 22  0  0  0  0  0  0  0  0999 V2000
   62.7892   22.6317   10.1172 O   0  0  0  0  0  0  0  0  0  0  0  0
   62.7154   23.9466   10.3519 C   0  0  0  0  0  0  0  0  0  0  0  0
   63.4702   24.5366   11.2390 O   0  0  0  0  0  0  0  0  0  0  0  0
   61.7414   24.7936    9.5082 C   0  0  0  0  0  0  0  0  0  0  0  0
   60.5873   25.3001   10.4401 C   0  0  1  0  0  0  0  0  0  0  0  0
   61.1213   25.8445   11.7618 C   0  0  0  0  0  0  0  0  0  0  0  0
   60.9746   27.1531   12.0384 O   0  0  0  0  0  0  0  0  0  0  0  0
   61.6275   25.0361   12.5975 O   0  0  0  0  0  0  0  0  0  0  0  0
   59.8883   26.4137    9.7879 N   0  0  0  0  0  0  0  0  0  0  0  0
   58.9601   26.2225    8.7521 C   0  0  0  0  0  0  0  0  0  0  0  0
   58.8894   25.1713    8.1416 O   0  0  0  0  0  0  0  0  0  0  0  0
   57.9941   27.3727    8.4840 C   0  0  0  0  0  0  0  0  0  0  0  0
   56.9522   27.4250    9.6043 C   0  0  0  0  0  0  0  0  0  0  0  0
   56.5895   28.5685   10.3454 C   0  0  0  0  0  0  0  0  0  0  0  0
   55.5945   28.1652   11.2328 N   0  0  0  0  0  0  0  0  0  0  0  0
   56.1316   26.3466   10.0042 C   0  0  0  0  0  0  0  0  0  0  0  0
   56.0174   25.0350    9.5443 C   0  0  0  0  0  0  0  0  0  0  0  0
   55.3182   26.8201   11.0347 C   0  0  0  0  0  0  0  0  0  0  0  0
   54.3896   25.9648   11.6354 C   0  0  0  0  0  0  0  0  0  0  0  0
   54.2845   24.6564   11.2008 C   0  0  0  0  0  0  0  0  0  0  0  0
   55.0969   24.2035   10.1715 C   0  0  0  0  0  0  0  0  0  0  0  0
  1  2  1  0
  2  3  2  0
  2  4  1  0
  5  4  1  6
  5  6  1  0
  6  7  2  0
  6  8  1  0
  5  9  1  0
  9 10  1  0
 10 11  2  0
 10 12  1  0
 12 13  1  0
 13 14  2  0
 14 15  1  0
 13 16  1  0
 16 17  2  0
 15 18  1  0
 16 18  1  0
 18 19  2  0
 19 20  1  0
 17 21  1  0
 20 21  2  0
M  END
