1HQ2_PH2_A_181
     RDKit          3D

 23 24  0  0  0  0  0  0  0  0999 V2000
   -8.3606    5.9528   18.1957 N   0  0  0  0  0  0  0  0  0  0  0  0
   -8.8405    5.7828   19.3944 C   0  0  0  0  0  0  0  0  0  0  0  0
  -10.2905    6.0836   19.7292 C   0  0  1  0  0  0  0  0  0  0  0  0
  -11.0171    6.7222   18.6280 N   0  0  0  0  0  0  0  0  0  0  0  0
  -11.1876    7.3649   16.2994 N   0  0  0  0  0  0  0  0  0  0  0  0
  -10.6522    7.5004   15.0563 C   0  0  0  0  0  0  0  0  0  0  0  0
  -11.4472    8.0351   13.9979 N   0  0  0  0  0  0  0  0  0  0  0  0
   -9.3608    7.1267   14.8268 N   0  0  0  0  0  0  0  0  0  0  0  0
   -8.5932    6.6174   15.8300 C   0  0  0  0  0  0  0  0  0  0  0  0
   -7.4003    6.2802   15.6019 O   0  0  0  0  0  0  0  0  0  0  0  0
   -9.1343    6.4720   17.1103 C   0  0  0  0  0  0  0  0  0  0  0  0
  -10.4532    6.8579   17.3231 C   0  0  0  0  0  0  0  0  0  0  0  0
   -7.9445    5.2186   20.4575 C   0  0  1  0  0  0  0  0  0  0  0  0
   -6.9563    6.1512   20.8015 O   0  0  0  0  0  0  0  0  0  0  0  0
  -10.8018    5.1335   19.9921 H   0  0  0  0  0  0  0  0  0  0  0  0
  -10.3238    6.7536   20.6142 H   0  0  0  0  0  0  0  0  0  0  0  0
  -12.0050    7.0218   18.7889 H   0  0  0  0  0  0  0  0  0  0  0  0
  -11.0537    8.1429   13.0369 H   0  0  0  0  0  0  0  0  0  0  0  0
  -12.4345    8.3249   14.1753 H   0  0  0  0  0  0  0  0  0  0  0  0
   -8.9529    7.2333   13.8701 H   0  0  0  0  0  0  0  0  0  0  0  0
   -8.5338    4.9793   21.3681 H   0  0  0  0  0  0  0  0  0  0  0  0
   -7.4844    4.2696   20.0993 H   0  0  0  0  0  0  0  0  0  0  0  0
   -6.5746    6.4911   19.9501 H   0  0  0  0  0  0  0  0  0  0  0  0
  1  2  2  0
  2  3  1  0
  3  4  1  0
  5  6  2  0
  6  7  1  0
  6  8  1  0
  8  9  1  0
  9 10  2  0
  1 11  1  0
  9 11  1  0
  4 12  1  0
  5 12  1  0
 11 12  2  0
  2 13  1  0
 13 14  1  0
  3 15  1  1
  3 16  1  0
  4 17  1  0
  7 18  1  0
  7 19  1  0
  8 20  1  0
 13 21  1  1
 13 22  1  0
 14 23  1  0
M  END
