
     RDKit          3D

 33 34  0  0  0  0  0  0  0  0999 V2000
   18.6543   -3.2920   34.6317 O   0  0  0  0  0  0  0  0  0  0  0  0
   20.6363   -2.4583   35.2241 O   0  0  0  0  0  0  0  0  0  0  0  0
   19.4240   -2.3329   35.1834 C   0  0  0  0  0  0  0  0  0  0  0  0
   18.6180   -1.1732   35.7207 C   0  0  1  0  0  0  0  0  0  0  0  0
   19.4591   -0.3798   36.7345 C   0  0  0  0  0  0  0  0  0  0  0  0
   19.8020   -1.1903   37.9784 C   0  0  0  0  0  0  0  0  0  0  0  0
   18.1838   -0.3181   34.5160 C   0  0  0  0  0  0  0  0  0  0  0  0
   17.4678    0.9556   34.9025 C   0  0  0  0  0  0  0  0  0  0  0  0
   16.1327    0.9175   35.3352 C   0  0  0  0  0  0  0  0  0  0  0  0
   15.4553    2.0895   35.7114 C   0  0  0  0  0  0  0  0  0  0  0  0
   16.1412    3.3079   35.6390 C   0  0  0  0  0  0  0  0  0  0  0  0
   17.4748    3.3578   35.2302 C   0  0  0  0  0  0  0  0  0  0  0  0
   18.1318    2.1872   34.8520 C   0  0  0  0  0  0  0  0  0  0  0  0
   15.5299    4.4546   36.0747 O   0  0  0  0  0  0  0  0  0  0  0  0
   16.4449    5.2747   36.8152 C   0  0  0  0  0  0  0  0  0  0  0  0
   16.4917    6.6588   36.1664 C   0  0  0  0  0  0  0  0  0  0  0  0
   15.0899    7.2229   35.9185 C   0  0  0  0  0  0  0  0  0  0  0  0
   15.0010    7.9200   34.5695 C   0  0  0  0  0  0  0  0  0  0  0  0
   14.0336    2.0093   36.1998 C   0  0  0  0  0  0  0  0  0  0  0  0
   13.9492    2.2668   37.6182 N   0  0  0  0  0  0  0  0  0  0  0  0
   12.7579    2.5967   38.2192 C   0  0  0  0  0  0  0  0  0  0  0  0
   11.6801    2.5562   37.6324 O   0  0  0  0  0  0  0  0  0  0  0  0
   12.8017    3.0043   39.6500 C   0  0  0  0  0  0  0  0  0  0  0  0
   11.9443    2.4802   40.6175 C   0  0  0  0  0  0  0  0  0  0  0  0
   12.0208    2.8941   41.9482 C   0  0  0  0  0  0  0  0  0  0  0  0
   12.9709    3.8472   42.3427 C   0  0  0  0  0  0  0  0  0  0  0  0
   13.8338    4.3796   41.3728 C   0  0  0  0  0  0  0  0  0  0  0  0
   13.7536    3.9579   40.0410 C   0  0  0  0  0  0  0  0  0  0  0  0
   13.0389    4.3181   43.7753 C   0  0  0  0  0  0  0  0  0  0  0  0
   11.0288    1.5523   40.3040 F   0  0  0  0  0  0  0  0  0  0  0  0
   11.8173    4.6171   44.2950 F   0  0  0  0  0  0  0  0  0  0  0  0
   13.5805    3.3815   44.5993 F   0  0  0  0  0  0  0  0  0  0  0  0
   13.7948    5.4395   43.9318 F   0  0  0  0  0  0  0  0  0  0  0  0
  1  3  1  0
  2  3  2  0
  3  4  1  0
  4  5  1  1
  5  6  1  0
  4  7  1  0
  7  8  1  0
  8  9  4  0
  9 10  4  0
 10 11  4  0
 11 12  4  0
  8 13  4  0
 12 13  4  0
 11 14  1  0
 14 15  1  0
 15 16  1  0
 16 17  1  0
 17 18  1  0
 10 19  1  0
 19 20  1  0
 20 21  1  0
 21 22  2  0
 21 23  1  0
 23 24  4  0
 24 25  4  0
 25 26  4  0
 26 27  4  0
 23 28  4  0
 27 28  4  0
 26 29  1  0
 24 30  1  0
 29 31  1  0
 29 32  1  0
 29 33  1  0
M  END
