7PK0_BYC_A_402
     RDKit          3D

 96 99  0  0  0  0  0  0  0  0999 V2000
   -1.9007    5.2491    6.6458 N   0  0  0  0  0  0  0  0  0  0  0  0
   -0.6509    7.3544    0.7199 O   0  0  0  0  0  0  0  0  0  0  0  0
    0.0562    8.5186    0.0626 P   0  0  2  0  0  5  0  0  0  0  0  0
    0.1206    6.3945   -0.6588 C   0  0  0  0  0  0  0  0  0  0  0  0
   -0.2755    5.9290    1.8117 C   0  0  1  0  0  0  0  0  0  0  0  0
    1.3862    7.6722   -0.5622 S   0  0  0  0  0  0  0  0  0  0  0  0
   -0.6263    5.1454    6.1459 C   0  0  0  0  0  0  0  0  0  0  0  0
   -1.0970    9.5012   -0.6931 O   0  0  0  0  0  0  0  0  0  0  0  0
    1.7371    6.4017   -0.5385 P   0  0  1  0  0  5  0  0  0  0  0  0
   -1.1175    6.4862    0.1428 C   0  0  0  0  0  0  0  0  0  0  0  0
   -0.5429    6.7217    0.5426 C   0  0  2  0  0  0  0  0  0  0  0  0
   -1.2876    6.0158   -0.4257 O   0  0  0  0  0  0  0  0  0  0  0  0
    0.3656    8.9730   -1.3362 C   0  0  0  0  0  0  0  0  0  0  0  0
   -0.3725    5.4088    4.8264 N   0  0  0  0  0  0  0  0  0  0  0  0
    1.1674    7.9202   -1.0802 O   0  0  0  0  0  0  0  0  0  0  0  0
   -2.2954    5.8622   -0.3020 C   0  0  0  0  0  0  0  0  0  0  0  0
    0.8421    7.1045    0.0809 C   0  0  2  0  0  0  0  0  0  0  0  0
    1.3795    6.0898   -0.7520 O   0  0  0  0  0  0  0  0  0  0  0  0
    1.8202    4.7366    0.1920 P   0  0  1  0  0  5  0  0  0  0  0  0
   -0.9770    8.4317   -1.8502 C   0  0  0  0  0  0  0  0  0  0  0  0
   -1.4154    5.7853    4.0474 C   0  0  0  0  0  0  0  0  0  0  0  0
    2.9741    5.8982   -1.5780 O   0  0  0  0  0  0  0  0  0  0  0  0
   -3.4811    5.9947    0.4272 C   0  0  0  0  0  0  0  0  0  0  0  0
    1.6141    7.1522    1.4103 C   0  0  2  0  0  0  0  0  0  0  0  0
    0.9114    6.4182    2.3960 O   0  0  0  0  0  0  0  0  0  0  0  0
   -0.9225    8.1981   -3.2934 N   0  0  0  0  0  0  0  0  0  0  0  0
    0.3011    5.4196   -1.4370 O   0  0  0  0  0  0  0  0  0  0  0  0
    2.2829    6.4703    0.8707 O   0  0  0  0  0  0  0  0  0  0  0  0
   -3.4962    6.7214    1.6227 C   0  0  0  0  0  0  0  0  0  0  0  0
    1.7987    8.5902    1.9062 C   0  0  0  0  0  0  0  0  0  0  0  0
    0.8780    9.4298    1.2466 O   0  0  0  0  0  0  0  0  0  0  0  0
   -2.6785    5.8962    4.5183 C   0  0  0  0  0  0  0  0  0  0  0  0
    0.1738    7.5286   -3.9309 C   0  0  0  0  0  0  0  0  0  0  0  0
    0.1466    7.3091   -5.1765 O   0  0  0  0  0  0  0  0  0  0  0  0
   -2.9485    5.6221    5.8525 C   0  0  0  0  0  0  0  0  0  0  0  0
   -4.2728    5.7081    6.3865 N   0  0  0  0  0  0  0  0  0  0  0  0
    0.4949    5.2279   -0.5604 O   0  0  0  0  0  0  0  0  0  0  0  0
   -2.3268    7.3349    2.0811 C   0  0  0  0  0  0  0  0  0  0  0  0
    1.3132    7.0024   -3.1011 C   0  0  0  0  0  0  0  0  0  0  0  0
   -3.5217    6.2480    3.5291 N   0  0  0  0  0  0  0  0  0  0  0  0
    1.8616    5.1711    1.8304 O   0  0  0  0  0  0  0  0  0  0  0  0
   -1.1443    7.2193    1.3448 C   0  0  0  0  0  0  0  0  0  0  0  0
    2.5693    6.7028   -3.9235 C   0  0  0  0  0  0  0  0  0  0  0  0
   -2.6952    6.3400    2.4490 C   0  0  0  0  0  0  0  0  0  0  0  0
    0.8252    3.6142   -0.0059 O   0  0  0  0  0  0  0  0  0  0  0  0
    3.6763    6.2784   -3.0663 N   0  0  0  0  0  0  0  0  0  0  0  0
   -1.3951    6.0719    2.7417 N   0  0  0  0  0  4  0  0  0  0  0  0
    3.3557    4.2100   -0.2896 O   0  0  0  0  0  0  0  0  0  0  0  0
    3.5389    6.0819   -1.6530 C   0  0  0  0  0  0  0  0  0  0  0  0
    3.8914    6.9893   -0.8503 O   0  0  0  0  0  0  0  0  0  0  0  0
    3.0333    4.7605   -1.1209 C   0  0  2  0  0  0  0  0  0  0  0  0
    4.1265    3.9084   -0.8693 O   0  0  0  0  0  0  0  0  0  0  0  0
    2.0084    4.0594   -2.0837 C   0  0  1  0  0  0  0  0  0  0  0  0
    0.5520    4.5158   -1.7790 C   0  0  0  0  0  0  0  0  0  0  0  0
    2.3674    4.4448   -3.5394 C   0  0  0  0  0  0  0  0  0  0  0  0
    2.1032    2.5205   -1.9583 C   0  0  0  0  0  0  0  0  0  0  0  0
   -0.1163    4.8541    1.5826 H   0  0  0  0  0  0  0  0  0  0  0  0
    0.1789    4.8443    6.8034 H   0  0  0  0  0  0  0  0  0  0  0  0
   -1.5030    8.9262   -1.3903 H   0  0  0  0  0  0  0  0  0  0  0  0
   -1.1022    7.6475    0.7987 H   0  0  0  0  0  0  0  0  0  0  0  0
   -0.8819    5.1182   -0.5481 H   0  0  0  0  0  0  0  0  0  0  0  0
    0.9401    9.4367   -2.1691 H   0  0  0  0  0  0  0  0  0  0  0  0
    0.1767    9.7541   -0.5663 H   0  0  0  0  0  0  0  0  0  0  0  0
   -2.3099    5.3093   -1.2326 H   0  0  0  0  0  0  0  0  0  0  0  0
    0.7645    8.0969   -0.4227 H   0  0  0  0  0  0  0  0  0  0  0  0
   -1.2491    7.4826   -1.3364 H   0  0  0  0  0  0  0  0  0  0  0  0
   -1.7766    9.1794   -1.6325 H   0  0  0  0  0  0  0  0  0  0  0  0
    2.5078    5.6316   -2.4077 H   0  0  0  0  0  0  0  0  0  0  0  0
   -4.3926    5.5383    0.0635 H   0  0  0  0  0  0  0  0  0  0  0  0
    2.6202    6.6949    1.2787 H   0  0  0  0  0  0  0  0  0  0  0  0
   -1.7276    8.5209   -3.8763 H   0  0  0  0  0  0  0  0  0  0  0  0
   -4.4122    6.8225    2.1876 H   0  0  0  0  0  0  0  0  0  0  0  0
    1.6608    8.5925    3.0126 H   0  0  0  0  0  0  0  0  0  0  0  0
    2.8361    8.9153    1.6697 H   0  0  0  0  0  0  0  0  0  0  0  0
   -5.0772    5.9777    5.7774 H   0  0  0  0  0  0  0  0  0  0  0  0
   -4.4524    5.4773    7.3880 H   0  0  0  0  0  0  0  0  0  0  0  0
   -2.3368    7.9011    3.0069 H   0  0  0  0  0  0  0  0  0  0  0  0
    1.5655    7.7216   -2.2923 H   0  0  0  0  0  0  0  0  0  0  0  0
    0.9743    6.0628   -2.6113 H   0  0  0  0  0  0  0  0  0  0  0  0
    2.3918    4.4552    2.2638 H   0  0  0  0  0  0  0  0  0  0  0  0
   -0.2541    7.7086    1.7176 H   0  0  0  0  0  0  0  0  0  0  0  0
    2.8700    7.5640   -4.5609 H   0  0  0  0  0  0  0  0  0  0  0  0
    2.3248    5.8728   -4.6204 H   0  0  0  0  0  0  0  0  0  0  0  0
   -3.0505    6.5674    1.4539 H   0  0  0  0  0  0  0  0  0  0  0  0
    4.6335    6.3275   -3.4717 H   0  0  0  0  0  0  0  0  0  0  0  0
    3.9274    5.0116   -0.2034 H   0  0  0  0  0  0  0  0  0  0  0  0
    2.5047    4.9738   -0.1608 H   0  0  0  0  0  0  0  0  0  0  0  0
    4.3483    3.9799    0.0973 H   0  0  0  0  0  0  0  0  0  0  0  0
   -0.1004    3.6145   -1.7299 H   0  0  0  0  0  0  0  0  0  0  0  0
    0.1991    5.1733   -2.6035 H   0  0  0  0  0  0  0  0  0  0  0  0
    3.3987    4.1102   -3.7831 H   0  0  0  0  0  0  0  0  0  0  0  0
    2.3116    5.5446   -3.6862 H   0  0  0  0  0  0  0  0  0  0  0  0
    1.6728    3.9647   -4.2654 H   0  0  0  0  0  0  0  0  0  0  0  0
    1.7277    2.1763   -0.9701 H   0  0  0  0  0  0  0  0  0  0  0  0
    1.4893    2.0173   -2.7355 H   0  0  0  0  0  0  0  0  0  0  0  0
    3.1520    2.1766   -2.0859 H   0  0  0  0  0  0  0  0  0  0  0  0
  2  3  2  0
  4  6  1  0
  1  7  4  0
  3  8  1  6
  4 10  1  0
  5 11  1  0
 11 12  1  0
  6 13  1  0
  7 14  4  0
  3 15  1  0
  9 15  1  6
 10 16  4  0
 11 17  1  0
 17 18  1  0
 19 18  1  6
 13 20  1  0
 14 21  4  0
  9 22  1  0
 16 23  4  0
 17 24  1  0
  5 25  1  0
 24 25  1  0
 20 26  1  0
  4 27  2  0
  9 28  2  0
 23 29  4  0
 24 30  1  0
  3 31  1  0
 30 31  1  0
 21 32  4  0
 26 33  1  0
 33 34  2  0
  1 35  4  0
 32 35  4  0
 35 36  1  0
  9 37  1  0
 29 38  4  0
 33 39  1  0
 32 40  4  0
 19 41  1  0
 10 42  4  0
 38 42  4  0
 39 43  1  0
 40 44  4  0
 19 45  2  0
 43 46  1  0
  5 47  1  0
 21 47  4  0
 44 47  4  0
 19 48  1  0
 46 49  1  0
 49 50  2  0
 49 51  1  0
 51 52  1  0
 51 53  1  0
 37 54  1  0
 53 54  1  1
 53 55  1  0
 53 56  1  0
  5 57  1  6
  7 58  1  0
  8 59  1  0
 11 60  1  1
 12 61  1  0
 13 62  1  0
 13 63  1  0
 16 64  1  0
 17 65  1  6
 20 66  1  0
 20 67  1  0
 22 68  1  0
 23 69  1  0
 24 70  1  6
 26 71  1  0
 29 72  1  0
 30 73  1  0
 30 74  1  0
 36 75  1  0
 36 76  1  0
 38 77  1  0
 39 78  1  0
 39 79  1  0
 41 80  1  0
 42 81  1  0
 43 82  1  0
 43 83  1  0
 44 84  1  0
 46 85  1  0
 48 86  1  0
 51 87  1  1
 52 88  1  0
 54 89  1  0
 54 90  1  0
 55 91  1  0
 55 92  1  0
 55 93  1  0
 56 94  1  0
 56 95  1  0
 56 96  1  0
M  CHG  1  47   1
M  END
