7Q2B_M6H_A_401
     RDKit          3D

 26 27  0  0  0  0  0  0  0  0999 V2000
  -34.9659  -12.0596   19.7093 C   0  0  0  0  0  0  0  0  0  0  0  0
  -35.6194  -11.4986   20.8099 C   0  0  0  0  0  0  0  0  0  0  0  0
  -33.8580  -11.4159   19.1512 C   0  0  0  0  0  0  0  0  0  0  0  0
  -35.1648  -10.2941   21.3557 C   0  0  0  0  0  0  0  0  0  0  0  0
  -33.3999  -10.2114   19.6941 C   0  0  0  0  0  0  0  0  0  0  0  0
  -35.0578   -5.7734   19.2450 C   0  0  2  0  0  0  0  0  0  0  0  0
  -34.2909   -4.9695   20.2769 C   0  0  2  0  0  0  0  0  0  0  0  0
  -33.5755   -8.3324   21.3775 C   0  0  1  0  0  0  0  0  0  0  0  0
  -34.5142   -7.1787   20.9832 C   0  0  2  0  0  0  0  0  0  0  0  0
  -34.0464   -9.6450   20.8059 C   0  0  0  0  0  0  0  0  0  0  0  0
  -34.8106   -7.1734   19.5481 N   0  0  0  0  0  0  0  0  0  0  0  0
  -33.9025   -5.8959   21.3339 N   0  0  0  0  0  0  0  0  0  0  0  0
  -35.3196  -12.9914   19.2872 H   0  0  0  0  0  0  0  0  0  0  0  0
  -36.4799  -11.9956   21.2385 H   0  0  0  0  0  0  0  0  0  0  0  0
  -33.3552  -11.8494   18.2964 H   0  0  0  0  0  0  0  0  0  0  0  0
  -35.6837   -9.8662   22.2046 H   0  0  0  0  0  0  0  0  0  0  0  0
  -32.5436   -9.7211   19.2479 H   0  0  0  0  0  0  0  0  0  0  0  0
  -34.7315   -5.5215   18.2110 H   0  0  0  0  0  0  0  0  0  0  0  0
  -36.1473   -5.5698   19.3351 H   0  0  0  0  0  0  0  0  0  0  0  0
  -34.9184   -4.1398   20.6745 H   0  0  0  0  0  0  0  0  0  0  0  0
  -33.3733   -4.5404   19.8204 H   0  0  0  0  0  0  0  0  0  0  0  0
  -32.5384   -8.1110   21.0413 H   0  0  0  0  0  0  0  0  0  0  0  0
  -33.5418   -8.4100   22.4866 H   0  0  0  0  0  0  0  0  0  0  0  0
  -35.4756   -7.2966   21.5375 H   0  0  0  0  0  0  0  0  0  0  0  0
  -33.9503   -7.4526   19.0186 H   0  0  0  0  0  0  0  0  0  0  0  0
  -34.3008   -5.5665   22.2452 H   0  0  0  0  0  0  0  0  0  0  0  0
  1  2  2  0
  1  3  1  0
  2  4  1  0
  3  5  2  0
  6  7  1  0
  8  9  1  0
  4 10  2  0
  8 10  1  0
  5 10  1  0
  6 11  1  0
  9 11  1  0
  9 12  1  0
  7 12  1  0
  1 13  1  0
  2 14  1  0
  3 15  1  0
  4 16  1  0
  5 17  1  0
  6 18  1  6
  6 19  1  0
  7 20  1  1
  7 21  1  0
  8 22  1  6
  8 23  1  0
  9 24  1  1
 11 25  1  0
 12 26  1  0
M  END
