
     RDKit          3D

 18 19  0  0  0  0  0  0  0  0999 V2000
    4.9479   30.3438   -2.5871 C   0  0  0  0  0  0  0  0  0  0  0  0
    5.7691   31.3802   -2.1341 C   0  0  0  0  0  0  0  0  0  0  0  0
    7.1166   31.4643   -2.5236 C   0  0  0  0  0  0  0  0  0  0  0  0
    7.6109   30.4709   -3.3874 C   0  0  0  0  0  0  0  0  0  0  0  0
    6.7913   29.4337   -3.8419 C   0  0  0  0  0  0  0  0  0  0  0  0
    5.4599   29.3703   -3.4403 C   0  0  0  0  0  0  0  0  0  0  0  0
    7.9862   32.5512   -2.0379 C   0  0  0  0  0  0  0  0  0  0  0  0
    9.1616   32.2679   -1.3216 C   0  0  0  0  0  0  0  0  0  0  0  0
    9.9953   33.2922   -0.8546 C   0  0  0  0  0  0  0  0  0  0  0  0
    9.6789   34.6368   -1.0884 C   0  0  0  0  0  0  0  0  0  0  0  0
    8.5094   34.9297   -1.8022 C   0  0  0  0  0  0  0  0  0  0  0  0
    7.6841   33.9018   -2.2629 C   0  0  0  0  0  0  0  0  0  0  0  0
   10.5926   35.7354   -0.5762 C   0  0  2  0  0  0  0  0  0  0  0  0
    9.9775   36.4796    0.6112 C   0  0  0  0  0  0  0  0  0  0  0  0
   10.9722   36.7114   -1.6747 C   0  0  0  0  0  0  0  0  0  0  0  0
   10.9032   37.9293   -1.6332 O   0  0  0  0  0  0  0  0  0  0  0  0
   11.4071   36.0940   -2.7935 O   0  0  0  0  0  0  0  0  0  0  0  0
    6.5811   34.2450   -2.9470 F   0  0  0  0  0  0  0  0  0  0  0  0
  1  2  4  0
  2  3  4  0
  3  4  4  0
  4  5  4  0
  1  6  4  0
  5  6  4  0
  3  7  1  0
  7  8  4  0
  8  9  4  0
  9 10  4  0
 10 11  4  0
  7 12  4  0
 11 12  4  0
 10 13  1  0
 13 14  1  1
 13 15  1  0
 15 16  2  0
 15 17  1  0
 12 18  1  0
M  END
