7NPL_UKZ_A_401
     RDKit          3D

 27 29  0  0  0  0  0  0  0  0999 V2000
  -26.5910   -3.0792   14.7617 C   0  0  0  0  0  0  0  0  0  0  0  0
  -25.4123   -2.5700   15.3184 C   0  0  0  0  0  0  0  0  0  0  0  0
  -18.9764    0.0426   14.8139 C   0  0  0  0  0  0  0  0  0  0  0  0
  -17.2136    1.7265   14.9218 C   0  0  0  0  0  0  0  0  0  0  0  0
  -18.2976   -0.7469   15.7795 C   0  0  0  0  0  0  0  0  0  0  0  0
  -18.8485   -2.0793   16.2694 C   0  0  0  0  0  0  0  0  0  0  0  0
  -20.9780    3.3743   16.4764 C   0  0  0  0  0  0  0  0  0  0  0  0
  -22.0765    2.7694   15.6099 C   0  0  0  0  0  0  0  0  0  0  0  0
  -21.4822    1.9036   14.4854 C   0  0  0  0  0  0  0  0  0  0  0  0
  -21.4991    0.4159   14.8413 C   0  0  1  0  0  0  0  0  0  0  0  0
  -22.7600   -0.2192   14.3736 N   0  0  0  0  0  0  0  0  0  0  0  0
  -23.5643   -0.8523   15.2373 C   0  0  0  0  0  0  0  0  0  0  0  0
  -23.2561   -1.0044   16.4219 O   0  0  0  0  0  0  0  0  0  0  0  0
  -24.8616   -1.3948   14.7586 C   0  0  0  0  0  0  0  0  0  0  0  0
  -25.5023   -0.7327   13.6983 C   0  0  0  0  0  0  0  0  0  0  0  0
  -26.6641   -1.2793   13.1382 C   0  0  0  0  0  0  0  0  0  0  0  0
  -27.2254   -2.4334   13.7031 C   0  0  0  0  0  0  0  0  0  0  0  0
  -27.0164   -4.1836   15.5229 N   0  0  0  0  0  0  0  0  0  0  0  0
  -26.1716   -4.4594   16.5081 C   0  0  0  0  0  0  0  0  0  0  0  0
  -26.3004   -5.3692   17.3253 O   0  0  0  0  0  0  0  0  0  0  0  0
  -25.0635   -3.4297   16.4969 C   0  0  0  0  0  0  0  0  0  0  0  0
  -20.3378   -0.3950   14.2411 C   0  0  1  0  0  0  0  0  0  0  0  0
  -20.3494   -0.2440   12.8169 O   0  0  0  0  0  0  0  0  0  0  0  0
  -18.4343    1.2746   14.4063 C   0  0  0  0  0  0  0  0  0  0  0  0
  -16.5449    0.9417   15.8528 C   0  0  0  0  0  0  0  0  0  0  0  0
  -17.1214   -0.2317   16.3272 C   0  0  0  0  0  0  0  0  0  0  0  0
  -16.2776   -1.1917   17.5040 Cl  0  0  0  0  0  0  0  0  0  0  0  0
  1  2  2  0
  3  5  2  0
  5  6  1  0
  7  8  1  0
  8  9  1  0
 10  9  1  6
 10 11  1  0
 11 12  1  0
 12 13  2  0
  2 14  1  0
 12 14  1  0
 14 15  2  0
 15 16  1  0
 16 17  2  0
  1 17  1  0
  1 18  1  0
 18 19  1  0
 19 20  2  0
 19 21  1  0
  2 21  1  0
 10 22  1  0
  3 22  1  0
 22 23  1  6
  3 24  1  0
  4 24  2  0
  4 25  1  0
  5 26  1  0
 25 26  2  0
 26 27  1  0
M  END
