7E2S_BLA_A_301
     RDKit          3D

 43 46  0  0  0  0  0  0  0  0999 V2000
   -7.5704  -21.2425  -22.0303 C   0  0  0  0  0  0  0  0  0  0  0  0
   -6.4307  -21.4272  -19.8736 N   0  0  0  0  0  0  0  0  0  0  0  0
   -7.3910  -20.8259  -20.6497 C   0  0  0  0  0  0  0  0  0  0  0  0
   -8.0188  -19.8747  -19.8988 C   0  0  0  0  0  0  0  0  0  0  0  0
   -7.3996  -19.9350  -18.6459 C   0  0  0  0  0  0  0  0  0  0  0  0
   -6.4201  -20.9027  -18.6557 C   0  0  0  0  0  0  0  0  0  0  0  0
   -7.7042  -19.1267  -17.4302 C   0  0  0  0  0  0  0  0  0  0  0  0
   -9.0968  -18.9572  -20.2630 C   0  0  0  0  0  0  0  0  0  0  0  0
   -8.7295  -17.5203  -20.3644 C   0  0  0  0  0  0  0  0  0  0  0  0
   -9.7834  -16.5663  -20.6723 C   0  0  0  0  0  0  0  0  0  0  0  0
  -10.9586  -17.0561  -20.8635 O   0  0  0  0  0  0  0  0  0  0  0  0
   -9.6851  -15.2095  -20.7853 O   0  0  0  0  0  0  0  0  0  0  0  0
   -5.5302  -21.2989  -17.5655 C   0  0  0  0  0  0  0  0  0  0  0  0
   -4.0404  -22.7202  -18.9098 N   0  0  0  0  0  0  0  0  0  0  0  0
   -4.5160  -22.1279  -17.7151 C   0  0  0  0  0  0  0  0  0  0  0  0
   -3.6897  -22.5954  -16.6053 C   0  0  0  0  0  0  0  0  0  0  0  0
   -2.7660  -23.4164  -17.0604 C   0  0  0  0  0  0  0  0  0  0  0  0
   -2.9382  -23.5343  -18.5151 C   0  0  0  0  0  0  0  0  0  0  0  0
   -3.8795  -22.2039  -15.1790 C   0  0  0  0  0  0  0  0  0  0  0  0
   -2.2765  -24.2095  -19.3383 O   0  0  0  0  0  0  0  0  0  0  0  0
   -1.7663  -24.1049  -16.2559 C   0  0  0  0  0  0  0  0  0  0  0  0
   -0.7521  -24.7557  -16.7910 C   0  0  0  0  0  0  0  0  0  0  0  0
   -3.9159  -17.5346  -22.0030 N   0  0  0  0  0  0  0  0  0  0  0  0
   -2.9033  -16.6193  -21.5725 C   0  0  0  0  0  0  0  0  0  0  0  0
   -2.4823  -15.9301  -22.7583 C   0  0  0  0  0  0  0  0  0  0  0  0
   -3.1490  -16.3484  -23.8532 C   0  0  0  0  0  0  0  0  0  0  0  0
   -4.1083  -17.4078  -23.4142 C   0  0  0  0  0  0  0  0  0  0  0  0
   -1.4093  -14.8712  -22.7097 C   0  0  0  0  0  0  0  0  0  0  0  0
   -2.4672  -16.4460  -20.4087 O   0  0  0  0  0  0  0  0  0  0  0  0
   -2.8718  -15.7681  -25.1437 C   0  0  0  0  0  0  0  0  0  0  0  0
   -3.1022  -16.1165  -26.3573 C   0  0  0  0  0  0  0  0  0  0  0  0
   -4.8875  -18.0134  -24.2304 C   0  0  0  0  0  0  0  0  0  0  0  0
   -6.1396  -19.5810  -22.9929 N   0  0  0  0  0  0  0  0  0  0  0  0
   -5.9027  -19.0366  -24.1843 C   0  0  0  0  0  0  0  0  0  0  0  0
   -6.7918  -19.6868  -25.0823 C   0  0  0  0  0  0  0  0  0  0  0  0
   -7.5548  -20.6103  -24.4543 C   0  0  0  0  0  0  0  0  0  0  0  0
   -7.1218  -20.5371  -23.0804 C   0  0  0  0  0  0  0  0  0  0  0  0
   -6.9485  -19.4373  -26.5135 C   0  0  0  0  0  0  0  0  0  0  0  0
   -8.5759  -21.5138  -24.9924 C   0  0  0  0  0  0  0  0  0  0  0  0
   -9.8795  -21.5060  -24.2478 C   0  0  0  0  0  0  0  0  0  0  0  0
  -10.7826  -22.4950  -24.9250 C   0  0  0  0  0  0  0  0  0  0  0  0
  -11.5873  -22.0501  -25.8036 O   0  0  0  0  0  0  0  0  0  0  0  0
  -10.7393  -23.8474  -24.6019 O   0  0  0  0  0  0  0  0  0  0  0  0
  1  3  1  0
  2  3  1  0
  3  4  2  0
  4  5  1  0
  2  6  1  0
  5  6  2  0
  7  5  1  1
  8  4  1  6
  8  9  1  0
  9 10  1  1
 10 11  2  0
 10 12  1  0
  6 13  1  0
 13 15  2  0
 14 15  1  0
 15 16  1  0
 16 17  2  0
 14 18  1  0
 17 18  1  0
 19 16  1  1
 18 20  2  0
 17 21  1  0
 21 22  2  0
 23 24  1  0
 24 25  1  0
 25 26  2  0
 23 27  1  0
 26 27  1  0
 28 25  1  1
 24 29  2  0
 26 30  1  0
 30 31  2  0
 27 32  2  0
 32 34  1  0
 33 34  2  0
 34 35  1  0
 35 36  2  0
  1 37  2  0
 33 37  1  0
 36 37  1  0
 38 35  1  6
 39 36  1  1
 39 40  1  0
 40 41  1  6
 41 42  2  0
 41 43  1  0
M  END
$$$$
