1P2Y_NCT_A_440
     RDKit          3D

 12 13  0  0  0  0  0  0  0  0999 V2000
    3.6640    5.3431   41.0041 N   0  0  0  0  0  0  0  0  0  0  0  0
    3.1305    6.1145   41.9601 C   0  0  0  0  0  0  0  0  0  0  0  0
    3.4601    5.9471   43.2773 C   0  0  0  0  0  0  0  0  0  0  0  0
    4.3650    4.9513   43.5850 C   0  0  0  0  0  0  0  0  0  0  0  0
    4.9383    4.1339   42.6294 C   0  0  0  0  0  0  0  0  0  0  0  0
    4.5402    4.3806   41.3131 C   0  0  0  0  0  0  0  0  0  0  0  0
    2.7505    6.0038   45.5981 N   0  0  0  0  0  0  0  0  0  0  0  0
    2.9058    6.7661   44.3782 C   0  0  1  0  0  0  0  0  0  0  0  0
    3.9076    7.8100   44.8775 C   0  0  0  0  0  0  0  0  0  0  0  0
    3.4084    8.0528   46.3010 C   0  0  0  0  0  0  0  0  0  0  0  0
    2.3027    7.0180   46.5035 C   0  0  0  0  0  0  0  0  0  0  0  0
    1.8986    4.8615   45.4700 C   0  0  0  0  0  0  0  0  0  0  0  0
  1  2  2  0
  2  3  1  0
  3  4  2  0
  4  5  1  0
  1  6  1  0
  5  6  2  0
  8  3  1  6
  7  8  1  0
  8  9  1  0
  9 10  1  0
  7 11  1  0
 10 11  1  0
  7 12  1  0
M  END
$$$$
