1P2Y_NCT_A_440
     RDKit          3D

 12 13  0  0  0  0  0  0  0  0999 V2000
   29.5829    3.5200   47.1439 N   0  0  0  0  0  0  0  0  0  0  0  0
   28.4689    3.0679   46.5539 C   0  0  0  0  0  0  0  0  0  0  0  0
   27.4432    3.9121   46.2267 C   0  0  0  0  0  0  0  0  0  0  0  0
   27.5996    5.2499   46.5278 C   0  0  0  0  0  0  0  0  0  0  0  0
   28.7324    5.7570   47.1358 C   0  0  0  0  0  0  0  0  0  0  0  0
   29.7245    4.8187   47.4315 C   0  0  0  0  0  0  0  0  0  0  0  0
   25.2243    2.9755   46.5307 N   0  0  0  0  0  0  0  0  0  0  0  0
   26.1888    3.4742   45.5746 C   0  0  1  0  0  0  0  0  0  0  0  0
   25.3864    4.6550   45.0229 C   0  0  0  0  0  0  0  0  0  0  0  0
   23.9727    4.0758   44.9983 C   0  0  0  0  0  0  0  0  0  0  0  0
   24.1016    2.7154   45.6817 C   0  0  0  0  0  0  0  0  0  0  0  0
   25.6891    1.8675   47.3074 C   0  0  0  0  0  0  0  0  0  0  0  0
  1  2  2  0
  2  3  1  0
  3  4  2  0
  4  5  1  0
  1  6  1  0
  5  6  2  0
  8  3  1  1
  7  8  1  0
  8  9  1  0
  9 10  1  0
  7 11  1  0
 10 11  1  0
  7 12  1  0
M  END
$$$$
