1P2Y_NCT_A_440
     RDKit          3D

 12 13  0  0  0  0  0  0  0  0999 V2000
   26.6302   16.4202   47.9698 N   0  0  0  0  0  0  0  0  0  0  0  0
   27.1995   17.1590   48.9310 C   0  0  0  0  0  0  0  0  0  0  0  0
   28.4180   17.7528   48.7455 C   0  0  0  0  0  0  0  0  0  0  0  0
   29.0402   17.5617   47.5284 C   0  0  0  0  0  0  0  0  0  0  0  0
   28.4874   16.8073   46.5109 C   0  0  0  0  0  0  0  0  0  0  0  0
   27.2417   16.2413   46.7936 C   0  0  0  0  0  0  0  0  0  0  0  0
   29.2315   19.9587   49.3501 N   0  0  0  0  0  0  0  0  0  0  0  0
   29.0981   18.5797   49.7673 C   0  0  1  0  0  0  0  0  0  0  0  0
   28.2267   18.7909   51.0077 C   0  0  0  0  0  0  0  0  0  0  0  0
   28.8096   20.0862   51.5708 C   0  0  0  0  0  0  0  0  0  0  0  0
   29.8162   20.5458   50.5173 C   0  0  0  0  0  0  0  0  0  0  0  0
   29.9605   20.1336   48.1316 C   0  0  0  0  0  0  0  0  0  0  0  0
  1  2  2  0
  2  3  1  0
  3  4  2  0
  4  5  1  0
  1  6  1  0
  5  6  2  0
  8  3  1  6
  7  8  1  0
  8  9  1  0
  9 10  1  0
  7 11  1  0
 10 11  1  0
  7 12  1  0
M  END
$$$$
