1P2Y_NCT_A_440
     RDKit          3D

 12 13  0  0  0  0  0  0  0  0999 V2000
    3.2600  -11.4196   37.4104 N   0  0  0  0  0  0  0  0  0  0  0  0
    3.6048  -10.2645   36.8268 C   0  0  0  0  0  0  0  0  0  0  0  0
    3.4756   -9.0696   37.4805 C   0  0  0  0  0  0  0  0  0  0  0  0
    2.9755   -9.0989   38.7666 C   0  0  0  0  0  0  0  0  0  0  0  0
    2.6082  -10.2684   39.4048 C   0  0  0  0  0  0  0  0  0  0  0  0
    2.7763  -11.4369   38.6575 C   0  0  0  0  0  0  0  0  0  0  0  0
    3.4511   -6.6560   37.7396 N   0  0  0  0  0  0  0  0  0  0  0  0
    3.8386   -7.7617   36.8907 C   0  0  1  0  0  0  0  0  0  0  0  0
    5.3524   -7.5356   36.8839 C   0  0  0  0  0  0  0  0  0  0  0  0
    5.4309   -6.0100   36.8516 C   0  0  0  0  0  0  0  0  0  0  0  0
    3.9838   -5.5462   37.0093 C   0  0  0  0  0  0  0  0  0  0  0  0
    2.0503   -6.6005   38.0254 C   0  0  0  0  0  0  0  0  0  0  0  0
  1  2  2  0
  2  3  1  0
  3  4  2  0
  4  5  1  0
  1  6  1  0
  5  6  2  0
  8  3  1  1
  7  8  1  0
  8  9  1  0
  9 10  1  0
  7 11  1  0
 10 11  1  0
  7 12  1  0
M  END
$$$$
