1P2Y_NCT_A_440
     RDKit          3D

 12 13  0  0  0  0  0  0  0  0999 V2000
   20.8972   36.1894   53.8838 N   0  0  0  0  0  0  0  0  0  0  0  0
   20.6555   35.2441   54.8013 C   0  0  0  0  0  0  0  0  0  0  0  0
   19.6599   34.3218   54.6287 C   0  0  0  0  0  0  0  0  0  0  0  0
   18.9122   34.4019   53.4713 C   0  0  0  0  0  0  0  0  0  0  0  0
   19.1290   35.3609   52.5002 C   0  0  0  0  0  0  0  0  0  0  0  0
   20.1667   36.2581   52.7654 C   0  0  0  0  0  0  0  0  0  0  0  0
   17.9784   32.7927   55.4818 N   0  0  0  0  0  0  0  0  0  0  0  0
   19.3441   33.2547   55.6043 C   0  0  1  0  0  0  0  0  0  0  0  0
   20.0668   31.9458   55.2771 C   0  0  0  0  0  0  0  0  0  0  0  0
   19.1599   30.9206   55.9561 C   0  0  0  0  0  0  0  0  0  0  0  0
   17.9583   31.7303   56.4408 C   0  0  0  0  0  0  0  0  0  0  0  0
   16.9957   33.8164   55.6640 C   0  0  0  0  0  0  0  0  0  0  0  0
  1  2  2  0
  2  3  1  0
  3  4  2  0
  4  5  1  0
  1  6  1  0
  5  6  2  0
  8  3  1  6
  7  8  1  0
  8  9  1  0
  9 10  1  0
  7 11  1  0
 10 11  1  0
  7 12  1  0
M  END
$$$$
