1P2Y_NCT_A_440
     RDKit          3D

 12 13  0  0  0  0  0  0  0  0999 V2000
   31.0451   18.4966   49.5845 N   0  0  0  0  0  0  0  0  0  0  0  0
   30.5054   19.7130   49.4339 C   0  0  0  0  0  0  0  0  0  0  0  0
   29.8668   20.0709   48.2781 C   0  0  0  0  0  0  0  0  0  0  0  0
   29.7992   19.1295   47.2709 C   0  0  0  0  0  0  0  0  0  0  0  0
   30.3426   17.8641   47.3859 C   0  0  0  0  0  0  0  0  0  0  0  0
   30.9740   17.5915   48.6021 C   0  0  0  0  0  0  0  0  0  0  0  0
   29.8306   22.4179   48.8974 N   0  0  0  0  0  0  0  0  0  0  0  0
   29.2511   21.3974   48.0511 C   0  0  1  0  0  0  0  0  0  0  0  0
   29.6284   21.9792   46.6866 C   0  0  0  0  0  0  0  0  0  0  0  0
   29.4436   23.4757   46.9335 C   0  0  0  0  0  0  0  0  0  0  0  0
   29.1493   23.5862   48.4287 C   0  0  0  0  0  0  0  0  0  0  0  0
   29.7181   22.1498   50.2983 C   0  0  0  0  0  0  0  0  0  0  0  0
  1  2  2  0
  2  3  1  0
  3  4  2  0
  4  5  1  0
  1  6  1  0
  5  6  2  0
  8  3  1  1
  7  8  1  0
  8  9  1  0
  9 10  1  0
  7 11  1  0
 10 11  1  0
  7 12  1  0
M  END
$$$$
