1P2Y_NCT_A_440
     RDKit          3D

 12 13  0  0  0  0  0  0  0  0999 V2000
   -0.1445   26.2366   41.9619 N   0  0  0  0  0  0  0  0  0  0  0  0
   -0.4132   26.1497   40.6528 C   0  0  0  0  0  0  0  0  0  0  0  0
    0.3165   25.3378   39.8281 C   0  0  0  0  0  0  0  0  0  0  0  0
    1.3422   24.6101   40.3967 C   0  0  0  0  0  0  0  0  0  0  0  0
    1.6522   24.6709   41.7421 C   0  0  0  0  0  0  0  0  0  0  0  0
    0.8520   25.5269   42.5031 C   0  0  0  0  0  0  0  0  0  0  0  0
    1.1760   25.6926   37.5857 N   0  0  0  0  0  0  0  0  0  0  0  0
    0.0691   25.1986   38.3756 C   0  0  1  0  0  0  0  0  0  0  0  0
    0.0928   23.7355   37.9271 C   0  0  0  0  0  0  0  0  0  0  0  0
    0.4447   23.8777   36.4470 C   0  0  0  0  0  0  0  0  0  0  0  0
    0.7398   25.3653   36.2623 C   0  0  0  0  0  0  0  0  0  0  0  0
    1.4913   27.0690   37.8162 C   0  0  0  0  0  0  0  0  0  0  0  0
  1  2  2  0
  2  3  1  0
  3  4  2  0
  4  5  1  0
  1  6  1  0
  5  6  2  0
  8  3  1  1
  7  8  1  0
  8  9  1  0
  9 10  1  0
  7 11  1  0
 10 11  1  0
  7 12  1  0
M  END
$$$$
