
     RDKit          3D

 31 33  0  0  0  0  0  0  0  0999 V2000
   27.7137    9.6699   36.8137 C   0  0  0  0  0  0  0  0  0  0  0  0
   28.0732    9.6244   38.2070 N   0  0  0  0  0  0  0  0  0  0  0  0
   29.4506    9.7122   38.5609 C   0  0  0  0  0  0  0  0  0  0  0  0
   29.8721    9.7501   39.8701 N   0  0  0  0  0  0  0  0  0  0  0  0
   31.1673    9.8519   40.2819 C   0  0  0  0  0  0  0  0  0  0  0  0
   31.4651    9.9153   41.4702 O   0  0  0  0  0  0  0  0  0  0  0  0
   32.1088    9.8863   39.3015 N   0  0  0  0  0  0  0  0  0  0  0  0
   31.8337    9.8827   37.9671 C   0  0  0  0  0  0  0  0  0  0  0  0
   32.7112    9.9936   37.1126 O   0  0  0  0  0  0  0  0  0  0  0  0
   30.3955    9.7448   37.5899 C   0  0  0  0  0  0  0  0  0  0  0  0
   30.0927    9.6683   36.2479 N   0  0  0  0  0  0  0  0  0  0  0  0
   28.7504    9.7158   35.8359 C   0  0  0  0  0  0  0  0  0  0  0  0
   28.4548    9.7269   34.4667 C   0  0  0  0  0  0  0  0  0  0  0  0
   27.1312    9.7284   34.0127 C   0  0  0  0  0  0  0  0  0  0  0  0
   26.8600    9.7778   32.5345 C   0  0  0  0  0  0  0  0  0  0  0  0
   26.0905    9.7168   34.9566 C   0  0  0  0  0  0  0  0  0  0  0  0
   24.6463    9.7337   34.5288 C   0  0  0  0  0  0  0  0  0  0  0  0
   26.3942    9.6756   36.3341 C   0  0  0  0  0  0  0  0  0  0  0  0
   26.9906    9.7235   39.2182 C   0  0  0  0  0  0  0  0  0  0  0  0
   26.5577   11.1847   39.4952 C   0  0  2  0  0  0  0  0  0  0  0  0
   27.4972   11.8464   40.3506 O   0  0  0  0  0  0  0  0  0  0  0  0
   25.1322   11.3251   40.0612 C   0  0  2  0  0  0  0  0  0  0  0  0
   24.8640   10.2680   40.9937 O   0  0  0  0  0  0  0  0  0  0  0  0
   24.0327   11.3758   38.9665 C   0  0  2  0  0  0  0  0  0  0  0  0
   24.5840   11.9383   37.7615 O   0  0  0  0  0  0  0  0  0  0  0  0
   22.8011   12.2077   39.3448 C   0  0  0  0  0  0  0  0  0  0  0  0
   21.6182   11.4371   39.1539 O   0  0  0  0  0  0  0  0  0  0  0  0
   20.7482   11.7835   37.8585 P   0  0  2  0  0  5  0  0  0  0  0  0
   20.4937   13.3524   37.9845 O   0  0  0  0  0  0  0  0  0  0  0  0
   19.5317   10.9706   37.5998 O   0  0  0  0  0  0  0  0  0  0  0  0
   21.8302   11.7302   36.6899 O   0  0  0  0  0  0  0  0  0  0  0  0
  1  2  1  0
  2  3  1  0
  3  4  4  0
  4  5  4  0
  5  6  2  0
  5  7  4  0
  7  8  4  0
  8  9  2  0
  3 10  4  0
  8 10  4  0
 10 11  1  0
  1 12  4  0
 11 12  1  0
 12 13  4  0
 13 14  4  0
 14 15  1  0
 14 16  4  0
 16 17  1  0
  1 18  4  0
 16 18  4  0
  2 19  1  0
 19 20  1  0
 20 21  1  1
 20 22  1  0
 22 23  1  1
 22 24  1  0
 24 25  1  6
 24 26  1  0
 26 27  1  0
 27 28  1  0
 28 29  1  1
 28 30  2  0
 28 31  1  0
M  END
