
     RDKit          3D

 21 23  0  0  0  0  0  0  0  0999 V2000
   -9.8654   -7.6637   21.2872 O   0  0  0  0  0  0  0  0  0  0  0  0
   -2.6112  -13.4961   20.6938 O   0  0  0  0  0  0  0  0  0  0  0  0
  -10.0361   -7.7770   20.0781 C   0  0  0  0  0  0  0  0  0  0  0  0
  -10.4793   -9.0728   19.4254 C   0  0  0  0  0  0  0  0  0  0  0  0
   -9.4093  -10.1639   19.5166 C   0  0  0  0  0  0  0  0  0  0  0  0
   -7.9988   -9.7055   19.1211 C   0  0  0  0  0  0  0  0  0  0  0  0
   -6.8879  -10.5898   19.6960 C   0  0  0  0  0  0  0  0  0  0  0  0
   -5.5601   -9.8370   19.8307 C   0  0  2  0  0  0  0  0  0  0  0  0
   -4.8284   -9.5427   18.1881 S   0  0  0  0  0  0  0  0  0  0  0  0
   -3.1137   -9.8183   18.7000 C   0  0  0  0  0  0  0  0  0  0  0  0
   -3.0986  -10.0654   20.2132 C   0  0  2  0  0  0  0  0  0  0  0  0
   -2.2690  -11.2048   20.5494 N   0  0  0  0  0  0  0  0  0  0  0  0
   -3.0336  -12.3598   20.5940 C   0  0  0  0  0  0  0  0  0  0  0  0
   -4.3681  -11.9885   20.5057 N   0  0  0  0  0  0  0  0  0  0  0  0
   -4.4853  -10.5504   20.6523 C   0  0  2  0  0  0  0  0  0  0  0  0
   -9.8453   -6.7430   19.1881 N   0  0  0  0  0  0  0  0  0  0  0  0
  -10.7275   -5.5754   19.1978 C   0  0  0  0  0  0  0  0  0  0  0  0
  -10.0878   -4.4085   19.9405 C   0  0  0  0  0  0  0  0  0  0  0  0
  -10.6502   -4.5323   21.3451 C   0  0  0  0  0  0  0  0  0  0  0  0
  -12.0402   -4.9147   21.1156 N   0  0  0  0  0  0  0  0  0  0  0  0
  -12.0321   -5.8431   19.9727 C   0  0  0  0  0  0  0  0  0  0  0  0
  1  3  2  0
  3  4  1  0
  4  5  1  0
  5  6  1  0
  6  7  1  0
  8  7  1  6
  8  9  1  0
  9 10  1  0
 11 10  1  6
 11 12  1  0
 12 13  1  0
  2 13  2  0
 13 14  1  0
 11 15  1  0
 15 14  1  6
  8 15  1  0
  3 16  1  0
 17 16  1  0
 17 18  1  0
 18 19  1  0
 19 20  1  0
 17 21  1  0
 20 21  1  0
M  END
