
     RDKit          3D

 11 12  0  0  0  0  0  0  0  0999 V2000
   39.9612  -20.3035   13.7284 C   0  0  0  0  0  0  0  0  0  0  0  0
   42.1232  -20.1067   12.5754 C   0  0  0  0  0  0  0  0  0  0  0  0
   42.8828  -19.7004   11.4816 C   0  0  0  0  0  0  0  0  0  0  0  0
   42.2613  -19.0694   10.4085 C   0  0  0  0  0  0  0  0  0  0  0  0
   40.8820  -18.8485   10.4363 C   0  0  0  0  0  0  0  0  0  0  0  0
   40.1067  -19.2555   11.5369 C   0  0  0  0  0  0  0  0  0  0  0  0
   38.7196  -19.0393   11.5771 C   0  0  0  0  0  0  0  0  0  0  0  0
   37.9643  -19.4496   12.6775 C   0  0  0  0  0  0  0  0  0  0  0  0
   38.5840  -20.0810   13.7521 C   0  0  0  0  0  0  0  0  0  0  0  0
   40.7365  -19.8967   12.6281 C   0  0  0  0  0  0  0  0  0  0  0  0
   42.7504  -20.7131   13.5963 F   0  0  0  0  0  0  0  0  0  0  0  0
  2  3  4  0
  3  4  4  0
  4  5  4  0
  5  6  4  0
  6  7  4  0
  7  8  4  0
  8  9  4  0
  1  9  4  0
  6 10  4  0
  2 10  4  0
  1 10  4  0
  2 11  1  0
M  END
