
     RDKit          3D

 12 12  0  0  0  0  0  0  0  0999 V2000
  -11.4933  -18.5355   19.5810 C   0  0  2  0  0  0  0  0  0  0  0  0
  -12.9267  -19.0666   19.4224 C   0  0  2  0  0  0  0  0  0  0  0  0
  -13.2593  -19.2568   17.9404 C   0  0  1  0  0  0  0  0  0  0  0  0
  -12.1944  -20.1106   17.2536 C   0  0  1  0  0  0  0  0  0  0  0  0
  -10.7977  -19.5266   17.5111 C   0  0  2  0  0  0  0  0  0  0  0  0
   -9.6960  -20.4409   16.9656 C   0  0  0  0  0  0  0  0  0  0  0  0
  -11.4356  -17.2009   19.0850 O   0  0  0  0  0  0  0  0  0  0  0  0
  -13.8862  -18.1538   19.9861 O   0  0  0  0  0  0  0  0  0  0  0  0
  -14.5347  -19.9117   17.8173 O   0  0  0  0  0  0  0  0  0  0  0  0
  -12.2897  -21.4512   17.7576 O   0  0  0  0  0  0  0  0  0  0  0  0
  -10.5309  -19.3399   18.9198 O   0  0  0  0  0  0  0  0  0  0  0  0
   -8.4320  -20.0253   17.4915 O   0  0  0  0  0  0  0  0  0  0  0  0
  1  2  1  0
  2  3  1  0
  3  4  1  0
  4  5  1  0
  5  6  1  1
  1  7  1  6
  2  8  1  6
  3  9  1  1
  4 10  1  1
  1 11  1  0
  5 11  1  0
  6 12  1  0
M  END
