8DSC_NCA_A_1001
     RDKit          3D

  9  9  0  0  0  0  0  0  0  0999 V2000
    9.0907   -8.3906   43.6742 N   0  0  0  0  0  0  0  0  0  0  0  0
   10.4136   -8.0762   43.5652 C   0  0  0  0  0  0  0  0  0  0  0  0
   11.0970   -8.3547   42.3985 C   0  0  0  0  0  0  0  0  0  0  0  0
   10.4648   -8.9519   41.3252 C   0  0  0  0  0  0  0  0  0  0  0  0
    9.1264   -9.2540   41.4759 C   0  0  0  0  0  0  0  0  0  0  0  0
    8.4282   -8.9810   42.6386 C   0  0  0  0  0  0  0  0  0  0  0  0
   12.5137   -8.0045   42.3159 C   0  0  0  0  0  0  0  0  0  0  0  0
   13.1088   -8.1174   41.2125 O   0  0  0  0  0  0  0  0  0  0  0  0
   13.2271   -7.5417   43.4511 N   0  0  0  0  0  0  0  0  0  0  0  0
  1  2  2  0
  2  3  1  0
  3  4  2  0
  4  5  1  0
  1  6  1  0
  5  6  2  0
  3  7  1  0
  7  8  2  0
  7  9  1  0
M  END
$$$$
