7VC5_9SF_A_902
     RDKit          3D

 22 24  0  0  0  0  0  0  0  0999 V2000
   19.5009   -1.1558   20.5035 N   0  0  0  0  0  0  0  0  0  0  0  0
   19.2104    0.1068   20.8847 C   0  0  0  0  0  0  0  0  0  0  0  0
   20.3280   -2.6551   23.6768 C   0  0  0  0  0  0  0  0  0  0  0  0
   20.6350   -3.9569   23.3397 C   0  0  0  0  0  0  0  0  0  0  0  0
   20.5450   -4.2883   21.9885 C   0  0  0  0  0  0  0  0  0  0  0  0
   20.1683   -3.3652   21.0317 C   0  0  0  0  0  0  0  0  0  0  0  0
   19.9489   -1.7031   22.7607 C   0  0  0  0  0  0  0  0  0  0  0  0
   18.9533    1.8651   22.5276 C   0  0  0  0  0  0  0  0  0  0  0  0
   21.2030    4.9135   22.0514 C   0  0  2  0  0  0  0  0  0  0  0  0
   20.1752    2.6818   22.4402 C   0  0  0  0  0  0  0  0  0  0  0  0
   20.0776    4.1460   22.7049 C   0  0  0  0  0  0  0  0  0  0  0  0
   22.1818    5.3655   23.1293 C   0  0  2  0  0  0  0  0  0  0  0  0
   19.6489   -0.4082   23.1374 C   0  0  0  0  0  0  0  0  0  0  0  0
   22.9448    6.5442   22.5833 C   0  0  0  0  0  0  0  0  0  0  0  0
   23.0710    6.5443   21.0830 C   0  0  0  0  0  0  0  0  0  0  0  0
   21.7187    6.4520   20.3917 C   0  0  0  0  0  0  0  0  0  0  0  0
   19.8716   -2.0717   21.4294 C   0  0  0  0  0  0  0  0  0  0  0  0
   20.7377    6.1283   21.4165 N   0  0  0  0  0  0  0  0  0  0  0  0
   19.2851    0.4727   22.1911 N   0  0  0  0  0  0  0  0  0  0  0  0
   19.7163   -0.0629   24.3459 O   0  0  0  0  0  0  0  0  0  0  0  0
   21.2810    2.2246   22.1596 O   0  0  0  0  0  0  0  0  0  0  0  0
   23.0338    4.3289   23.4992 O   0  0  0  0  0  0  0  0  0  0  0  0
  1  2  2  0
  3  4  2  0
  4  5  1  0
  5  6  2  0
  3  7  1  0
  8 10  1  0
  9 11  1  0
 11 10  1  1
  9 12  1  0
  7 13  1  0
 12 14  1  0
 14 15  1  6
 15 16  1  6
  1 17  1  0
  7 17  2  0
  6 17  1  0
 16 18  1  1
  9 18  1  1
  8 19  1  1
  2 19  1  0
 13 19  1  0
 13 20  2  0
 10 21  2  0
 12 22  1  6
M  END
$$$$
