8FV9_80J_AAA_603
     RDKit          3D

 29 30  0  0  0  0  0  0  0  0999 V2000
  -37.1226   -7.9504   20.9790 C   0  0  2  0  0  0  0  0  0  0  0  0
  -38.7276   -8.6994   22.6065 C   0  0  0  0  0  0  0  0  0  0  0  0
  -37.1097   -6.4494   21.1622 C   0  0  1  0  0  0  0  0  0  0  0  0
  -35.8829   -6.0510   20.3564 C   0  0  1  0  0  0  0  0  0  0  0  0
  -38.2213  -10.0640   24.4363 C   0  0  0  0  0  0  0  0  0  0  0  0
  -35.7441   -7.2763   19.4734 C   0  0  1  0  0  0  0  0  0  0  0  0
  -36.9116  -10.0615   23.9990 C   0  0  0  0  0  0  0  0  0  0  0  0
  -34.4146   -7.3458   18.7678 C   0  0  0  0  0  0  0  0  0  0  0  0
  -36.5218   -9.3679   22.8548 C   0  0  0  0  0  0  0  0  0  0  0  0
  -38.2345   -5.8749   20.5799 F   0  0  0  0  0  0  0  0  0  0  0  0
  -37.4483   -8.6849   22.1618 N   0  0  0  0  0  0  0  0  0  0  0  0
  -39.1062   -9.3683   23.7109 N   0  0  0  0  0  0  0  0  0  0  0  0
  -38.6780  -10.7421   25.5798 N   0  0  0  0  0  0  0  0  0  0  0  0
  -31.8673   -6.5942   18.1022 O   0  0  0  0  0  0  0  0  0  0  0  0
  -30.8151  -11.2777   19.2911 O   0  0  0  0  0  0  0  0  0  0  0  0
  -35.0921  -11.8660   18.5049 O   0  0  0  0  0  0  0  0  0  0  0  0
  -39.5947   -8.0553   21.9510 O   0  0  0  0  0  0  0  0  0  0  0  0
  -31.5654   -6.4155   20.6602 O   0  0  0  0  0  0  0  0  0  0  0  0
  -31.2808  -10.0198   17.0341 O   0  0  0  0  0  0  0  0  0  0  0  0
  -34.1255  -10.5335   16.5236 O   0  0  0  0  0  0  0  0  0  0  0  0
  -36.1101   -4.9004   19.6104 O   0  0  0  0  0  0  0  0  0  0  0  0
  -30.7503   -8.6727   19.3452 O   0  0  0  0  0  0  0  0  0  0  0  0
  -33.1263  -10.1426   19.0374 O   0  0  0  0  0  0  0  0  0  0  0  0
  -32.7198  -12.5940   17.7435 O   0  0  0  0  0  0  0  0  0  0  0  0
  -35.8752   -8.2814   20.4308 O   0  0  0  0  0  0  0  0  0  0  0  0
  -33.4847   -8.0776   19.4590 O   0  0  0  0  0  0  0  0  0  0  0  0
  -31.9282   -7.4342   19.3584 P   0  0  2  0  0  0  0  0  0  0  0  0
  -31.4748  -10.0405   18.7147 P   0  0  2  0  0  0  0  0  0  0  0  0
  -33.7724  -11.3145   17.9835 P   0  0  1  0  0  0  0  0  0  0  0  0
  1  3  1  0
  3  4  1  0
  4  6  1  0
  5  7  1  0
  6  8  1  1
  7  9  2  0
  3 10  1  6
  9 11  1  0
  2 11  1  0
  1 11  1  1
  5 12  2  0
  2 12  1  0
  5 13  1  0
  2 17  2  0
  4 21  1  6
  1 25  1  0
  6 25  1  0
  8 26  1  0
 14 27  2  0
 22 27  1  0
 26 27  1  0
 27 18  1  1
 23 28  1  0
 15 28  2  0
 28 19  1  6
 22 28  1  0
 16 29  2  0
 29 24  1  6
 23 29  1  0
 20 29  1  0
M  END
$$$$
