1N2V_BDI_A_900
     RDKit          3D

 15 16  0  0  0  0  0  0  0  0999 V2000
   15.4546   17.1938   19.0625 N   0  0  0  0  0  0  0  0  0  0  0  0
   14.5975   18.0799   18.5854 C   0  0  0  0  0  0  0  0  0  0  0  0
   14.2037   18.1268   17.1071 C   0  0  0  0  0  0  0  0  0  0  0  0
   13.2062   17.0365   16.5986 C   0  0  0  0  0  0  0  0  0  0  0  0
   12.6484   17.4617   15.2006 C   0  0  0  0  0  0  0  0  0  0  0  0
   13.1925   18.8308   14.7238 C   0  0  0  0  0  0  0  0  0  0  0  0
   14.1740   18.8321   19.4593 N   0  0  0  0  0  0  0  0  0  0  0  0
   14.7222   18.5385   20.7433 C   0  0  0  0  0  0  0  0  0  0  0  0
   14.5477   19.1277   22.1050 C   0  0  0  0  0  0  0  0  0  0  0  0
   15.2919   18.5255   23.1270 N   0  0  0  0  0  0  0  0  0  0  0  0
   16.2140   17.3618   22.8970 N   0  0  0  0  0  0  0  0  0  0  0  0
   16.4142   16.7717   21.6345 C   0  0  0  0  0  0  0  0  0  0  0  0
   17.1880   15.7912   21.4254 O   0  0  0  0  0  0  0  0  0  0  0  0
   15.5932   17.4299   20.4878 C   0  0  0  0  0  0  0  0  0  0  0  0
   13.7904   20.0803   22.2769 O   0  0  0  0  0  0  0  0  0  0  0  0
  1  2  2  0
  2  3  1  0
  3  4  1  0
  4  5  1  0
  5  6  1  0
  2  7  1  0
  7  8  1  0
  8  9  1  0
  9 10  1  0
 10 11  1  0
 11 12  1  0
 12 13  2  0
  1 14  1  0
  8 14  2  0
 12 14  1  0
  9 15  2  0
M  END
