6XCT_478_A_401
     RDKit          3D

 35 37  0  0  0  0  0  0  0  0999 V2000
    4.4355    5.3696   -7.7015 C   0  0  0  0  0  0  0  0  0  0  0  0
    5.5770    3.4389   -6.8510 C   0  0  0  0  0  0  0  0  0  0  0  0
    7.2035    5.9412   -9.1179 C   0  0  0  0  0  0  0  0  0  0  0  0
    5.6053    4.4656   -7.9435 C   0  0  2  0  0  0  0  0  0  0  0  0
    8.8546    7.6637   -9.9441 C   0  0  2  0  0  0  0  0  0  0  0  0
    9.5013    6.7724  -11.0172 C   0  0  1  0  0  0  0  0  0  0  0  0
    9.7770    8.7285   -9.4592 C   0  0  0  0  0  0  0  0  0  0  0  0
    9.1407    9.6309   -8.4596 C   0  0  0  0  0  0  0  0  0  0  0  0
    7.7780    9.8542   -8.4158 C   0  0  0  0  0  0  0  0  0  0  0  0
   10.0022   10.2515   -7.5529 C   0  0  0  0  0  0  0  0  0  0  0  0
    7.2588   10.7020   -7.4636 C   0  0  0  0  0  0  0  0  0  0  0  0
    9.4542   11.1056   -6.5976 C   0  0  0  0  0  0  0  0  0  0  0  0
    8.0855   11.3259   -6.5586 C   0  0  0  0  0  0  0  0  0  0  0  0
    8.4488    6.6044  -12.0726 C   0  0  0  0  0  0  0  0  0  0  0  0
    8.3676    4.3484  -12.6871 C   0  0  0  0  0  0  0  0  0  0  0  0
    9.3166    3.7199  -11.6945 C   0  0  2  0  0  0  0  0  0  0  0  0
    6.2960    5.9478  -14.6417 C   0  0  0  0  0  0  0  0  0  0  0  0
    5.4583    6.9644  -14.2272 C   0  0  0  0  0  0  0  0  0  0  0  0
    4.0802    6.8418  -14.2885 C   0  0  0  0  0  0  0  0  0  0  0  0
    3.4988    5.6873  -14.7709 C   0  0  0  0  0  0  0  0  0  0  0  0
    4.3144    4.6557  -15.1917 C   0  0  0  0  0  0  0  0  0  0  0  0
    5.6889    4.7813  -15.1293 C   0  0  0  0  0  0  0  0  0  0  0  0
   10.5650    3.3320  -12.4916 C   0  0  0  0  0  0  0  0  0  0  0  0
    8.7418    2.4281  -11.1337 C   0  0  0  0  0  0  0  0  0  0  0  0
    4.6000    4.0698   -5.8788 C   0  0  0  0  0  0  0  0  0  0  0  0
    8.2815    6.8474   -8.8982 N   0  0  0  0  0  0  0  0  0  0  0  0
    8.7261    5.6696  -13.0980 N   0  0  0  0  0  0  0  0  0  0  0  0
    2.0798    5.5186  -14.8512 N   0  0  0  0  0  0  0  0  0  0  0  0
    6.8402    5.1218   -8.0752 O   0  0  0  0  0  0  0  0  0  0  0  0
    6.5781    5.8551  -10.2006 O   0  0  0  0  0  0  0  0  0  0  0  0
   10.5574    7.5021  -11.5255 O   0  0  0  0  0  0  0  0  0  0  0  0
    8.5562    5.2716  -15.7306 O   0  0  0  0  0  0  0  0  0  0  0  0
    8.4076    7.5424  -14.9670 O   0  0  0  0  0  0  0  0  0  0  0  0
    3.6732    4.6838   -6.7530 O   0  0  0  0  0  0  0  0  0  0  0  0
    8.0235    6.1326  -14.5834 S   0  0  1  0  0  0  0  0  0  0  0  0
  1  4  1  0
  2  4  1  0
  5  6  1  0
  5  7  1  1
  7  8  1  0
  8  9  2  0
  8 10  1  0
  9 11  1  0
 10 12  2  0
 11 13  2  0
 12 13  1  0
  6 14  1  0
 15 16  1  0
 17 18  2  0
 18 19  1  0
 19 20  2  0
 20 21  1  0
 17 22  1  0
 21 22  2  0
 16 23  1  6
 16 24  1  0
  2 25  1  0
  3 26  1  0
  5 26  1  0
 14 27  1  0
 15 27  1  0
 20 28  1  0
  3 29  1  0
  4 29  1  1
  3 30  2  0
  6 31  1  6
  1 34  1  0
 25 34  1  0
 17 35  1  0
 35 27  1  1
 32 35  2  0
 33 35  2  0
M  END
$$$$
