7UF2_5SP_A_301
     RDKit          3D

 14 13  0  0  0  0  0  0  0  0999 V2000
  -11.7806   -3.0058   10.9461 O   0  0  0  0  0  0  0  0  0  0  0  0
  -10.6764   -3.1435   10.0883 C   0  0  0  0  0  0  0  0  0  0  0  0
   -9.4116   -3.5896   10.8474 C   0  0  0  0  0  0  0  0  0  0  0  0
   -9.4412   -3.9601   11.9781 O   0  0  0  0  0  0  0  0  0  0  0  0
   -8.0665   -3.6743   10.1168 C   0  0  2  0  0  0  0  0  0  0  0  0
   -7.9845   -5.1979    9.9385 C   0  0  1  0  0  0  0  0  0  0  0  0
   -6.5656   -5.6549    9.7355 C   0  0  0  0  0  0  0  0  0  0  0  0
   -5.9482   -4.4636    9.4040 O   0  0  0  0  0  0  0  0  0  0  0  0
   -4.8488   -3.8756   10.4530 P   0  0  2  0  0  0  0  0  0  0  0  0
   -3.9548   -4.9025   11.0863 O   0  0  0  0  0  0  0  0  0  0  0  0
   -5.5802   -3.0729   11.4767 O   0  0  0  0  0  0  0  0  0  0  0  0
   -3.9081   -3.0175    9.6336 O   0  0  0  0  0  0  0  0  0  0  0  0
   -7.0702   -3.1387   10.9234 O   0  0  0  0  0  0  0  0  0  0  0  0
   -8.4930   -5.6747   11.1562 O   0  0  0  0  0  0  0  0  0  0  0  0
  1  2  1  0
  2  3  1  0
  3  4  2  0
  3  5  1  0
  5  6  1  0
  6  7  1  0
  7  8  1  0
  8  9  1  0
  9 10  2  0
  9 11  1  1
  9 12  1  0
  5 13  1  1
  6 14  1  1
M  END
