7Z2O_IAJ_A_701
     RDKit          3D

 14 16  0  0  0  0  0  0  0  0999 V2000
  -10.5371   14.0231    9.6433 C   0  0  0  0  0  0  0  0  0  0  0  0
   -9.4121   13.7774    8.8867 C   0  0  0  0  0  0  0  0  0  0  0  0
   -8.1842   14.1331    9.3867 C   0  0  0  0  0  0  0  0  0  0  0  0
   -5.7060   14.6961   10.0668 C   0  0  0  0  0  0  0  0  0  0  0  0
   -5.9972   15.5658   11.9756 C   0  0  0  0  0  0  0  0  0  0  0  0
   -7.9274   14.7258   10.5927 C   0  0  0  0  0  0  0  0  0  0  0  0
   -4.4982   15.0434   10.5530 N   0  0  0  0  0  0  0  0  0  0  0  0
   -4.6835   15.5862   11.7451 N   0  0  0  0  0  0  0  0  0  0  0  0
  -10.3406   14.6157   10.8617 C   0  0  0  0  0  0  0  0  0  0  0  0
   -6.6882   15.0034   10.9244 N   0  0  0  0  0  0  0  0  0  0  0  0
  -10.2231   15.8671   13.3339 C   0  0  0  0  0  0  0  0  0  0  0  0
   -9.0598   15.5560   12.5929 O   0  0  0  0  0  0  0  0  0  0  0  0
   -9.1056   14.9681   11.3533 C   0  0  0  0  0  0  0  0  0  0  0  0
   -6.5270   13.9419    8.6352 S   0  0  0  0  0  0  0  0  0  0  0  0
  1  2  2  0
  2  3  1  0
  3  6  2  0
  4  7  2  0
  5  8  2  0
  7  8  1  0
  1  9  1  0
  5 10  1  0
  6 10  1  0
  4 10  1  0
 11 12  1  1
 12 13  1  0
  6 13  1  0
  9 13  2  0
  4 14  1  0
  3 14  1  0
M  END
$$$$
