7FT9_4MB_C_301
     RDKit          3D

 14 14  0  0  0  0  0  0  0  0999 V2000
  -15.4896   -0.9892  -46.9072 C   0  0  0  0  0  0  0  0  0  0  0  0
  -16.2941    1.0868  -47.8419 C   0  0  0  0  0  0  0  0  0  0  0  0
  -16.8134   -3.0621  -47.1546 N   0  0  0  0  0  0  0  0  0  0  0  0
  -16.5851   -1.6771  -47.3552 C   0  0  0  0  0  0  0  0  0  0  0  0
  -15.3365    0.3770  -47.1427 C   0  0  0  0  0  0  0  0  0  0  0  0
  -16.1638    2.5152  -48.1046 C   0  0  0  0  0  0  0  0  0  0  0  0
  -17.3974    0.3933  -48.2928 C   0  0  0  0  0  0  0  0  0  0  0  0
  -17.0879   -3.7752  -44.3840 C   0  0  0  0  0  0  0  0  0  0  0  0
  -17.5434   -0.9682  -48.0545 C   0  0  0  0  0  0  0  0  0  0  0  0
  -17.1406    3.2299  -48.4557 O   0  0  0  0  0  0  0  0  0  0  0  0
  -14.9241    3.1257  -47.9675 O   0  0  0  0  0  0  0  0  0  0  0  0
  -16.1774   -3.9904  -45.8774 S   0  0  1  0  0  6  0  0  0  0  0  0
  -16.2091   -5.4444  -46.2734 O   0  0  0  0  0  0  0  0  0  0  0  0
  -14.7349   -3.5902  -45.5942 O   0  0  0  0  0  0  0  0  0  0  0  0
  1  4  2  0
  3  4  1  0
  1  5  1  0
  2  5  2  0
  2  6  1  0
  2  7  1  0
  4  9  1  0
  7  9  2  0
  6 10  2  0
  6 11  1  0
 12  3  1  6
  8 12  1  1
 12 13  2  0
 12 14  2  0
M  END
$$$$
