7QFM_AY3_A_402
     RDKit          3D

 20 22  0  0  0  0  0  0  0  0999 V2000
 -129.3186  170.6674   -7.2877 C   0  0  0  0  0  0  0  0  0  0  0  0
 -128.3659  170.0049   -8.0295 C   0  0  0  0  0  0  0  0  0  0  0  0
 -126.6492  168.2177   -8.1313 C   0  0  0  0  0  0  0  0  0  0  0  0
 -127.6775  168.9776   -7.4235 C   0  0  0  0  0  0  0  0  0  0  0  0
 -127.9432  168.6347   -6.1180 C   0  0  0  0  0  0  0  0  0  0  0  0
 -128.9037  169.3228   -5.4115 C   0  0  0  0  0  0  0  0  0  0  0  0
 -126.0189  167.2596   -7.5763 O   0  0  0  0  0  0  0  0  0  0  0  0
 -129.6320  170.3784   -5.9879 C   0  0  0  0  0  0  0  0  0  0  0  0
 -126.3572  168.5600   -9.4536 O   0  0  0  0  0  0  0  0  0  0  0  0
 -130.6024  171.0137   -5.1538 C   0  0  0  0  0  0  0  0  0  0  0  0
 -130.9852  170.8082   -3.9328 C   0  0  0  0  0  0  0  0  0  0  0  0
 -129.4238  169.0061   -3.2962 O   0  0  0  0  0  0  0  0  0  0  0  0
 -130.3762  169.7843   -3.0387 C   0  0  0  0  0  0  0  0  0  0  0  0
 -132.9654  172.3636   -3.3247 C   0  0  0  0  0  0  0  0  0  0  0  0
 -132.0302  171.3863   -3.1011 C   0  0  0  0  0  0  0  0  0  0  0  0
 -131.0428  169.8006   -1.7957 N   0  0  0  0  0  0  0  0  0  0  0  0
 -133.8649  172.7204   -2.3555 C   0  0  0  0  0  0  0  0  0  0  0  0
 -133.8863  172.1337   -1.1261 C   0  0  0  0  0  0  0  0  0  0  0  0
 -132.9597  171.1452   -0.8685 C   0  0  0  0  0  0  0  0  0  0  0  0
 -132.0516  170.7875   -1.8531 C   0  0  0  0  0  0  0  0  0  0  0  0
  1  2  2  0
  3  4  1  0
  2  4  1  0
  4  5  2  0
  5  6  1  0
  3  7  2  0
  1  8  1  0
  6  8  2  0
  3  9  1  0
  8 10  1  0
 10 11  2  0
 12 13  2  0
 11 13  1  0
 11 15  1  0
 14 15  2  0
 13 16  1  0
 14 17  1  0
 17 18  2  0
 18 19  1  0
 15 20  1  0
 16 20  1  0
 19 20  2  0
M  END
$$$$
