1HQ2_PH2_A_181
     RDKit          3D

 14 15  0  0  0  0  0  0  0  0999 V2000
   -6.9791    7.5047   17.7997 N   0  0  0  0  0  0  0  0  0  0  0  0
   -6.7481    7.7389   19.0423 C   0  0  0  0  0  0  0  0  0  0  0  0
   -7.5214    8.7256   19.8476 C   0  0  0  0  0  0  0  0  0  0  0  0
   -8.5474    9.3684   19.0477 N   0  0  0  0  0  0  0  0  0  0  0  0
   -9.7234    9.6846   16.9519 N   0  0  0  0  0  0  0  0  0  0  0  0
   -9.9256    9.4026   15.6480 C   0  0  0  0  0  0  0  0  0  0  0  0
  -10.9593   10.0884   14.9494 N   0  0  0  0  0  0  0  0  0  0  0  0
   -9.1742    8.4925   15.0020 N   0  0  0  0  0  0  0  0  0  0  0  0
   -8.2099    7.8748   15.7158 C   0  0  0  0  0  0  0  0  0  0  0  0
   -7.4994    7.0225   15.1279 O   0  0  0  0  0  0  0  0  0  0  0  0
   -7.9895    8.1461   17.0354 C   0  0  0  0  0  0  0  0  0  0  0  0
   -8.7701    9.0817   17.6791 C   0  0  0  0  0  0  0  0  0  0  0  0
   -5.6602    7.0088   19.7545 C   0  0  0  0  0  0  0  0  0  0  0  0
   -5.1376    5.9897   18.9625 O   0  0  0  0  0  0  0  0  0  0  0  0
  1  2  2  0
  2  3  1  0
  3  4  1  0
  5  6  2  0
  6  7  1  0
  6  8  1  0
  8  9  1  0
  9 10  2  0
  1 11  1  0
  9 11  1  0
  4 12  1  0
  5 12  1  0
 11 12  2  0
  2 13  1  0
 13 14  1  0
M  END
$$$$
