1HQ2_PH2_A_181
     RDKit          3D

 14 15  0  0  0  0  0  0  0  0999 V2000
   -7.0167    7.4185   17.7054 N   0  0  0  0  0  0  0  0  0  0  0  0
   -6.7918    7.6812   18.9434 C   0  0  0  0  0  0  0  0  0  0  0  0
   -7.5813    8.6722   19.7273 C   0  0  0  0  0  0  0  0  0  0  0  0
   -8.6152    9.2834   18.9128 N   0  0  0  0  0  0  0  0  0  0  0  0
   -9.7915    9.5398   16.8092 N   0  0  0  0  0  0  0  0  0  0  0  0
   -9.9869    9.2285   15.5108 C   0  0  0  0  0  0  0  0  0  0  0  0
  -11.0293    9.8846   14.7968 N   0  0  0  0  0  0  0  0  0  0  0  0
   -9.2207    8.3169   14.8846 N   0  0  0  0  0  0  0  0  0  0  0  0
   -8.2488    7.7282   15.6123 C   0  0  0  0  0  0  0  0  0  0  0  0
   -7.5245    6.8749   15.0430 O   0  0  0  0  0  0  0  0  0  0  0  0
   -8.0351    8.0293   16.9266 C   0  0  0  0  0  0  0  0  0  0  0  0
   -8.8308    8.9659   17.5499 C   0  0  0  0  0  0  0  0  0  0  0  0
   -5.6945    6.9819   19.6720 C   0  0  0  0  0  0  0  0  0  0  0  0
   -5.1859    5.9261   18.9201 O   0  0  0  0  0  0  0  0  0  0  0  0
  1  2  2  0
  2  3  1  0
  3  4  1  0
  5  6  2  0
  6  7  1  0
  6  8  1  0
  8  9  1  0
  9 10  2  0
  1 11  1  0
  9 11  1  0
  4 12  1  0
  5 12  1  0
 11 12  2  0
  2 13  1  0
 13 14  1  0
M  END
$$$$
