1HQ2_PH2_A_181
     RDKit          3D

 14 15  0  0  0  0  0  0  0  0999 V2000
   -7.1827    7.3280   17.7627 N   0  0  0  0  0  0  0  0  0  0  0  0
   -7.0020    7.5525   19.0153 C   0  0  0  0  0  0  0  0  0  0  0  0
   -7.7877    8.5537   19.7900 C   0  0  0  0  0  0  0  0  0  0  0  0
   -8.7623    9.2226   18.9482 N   0  0  0  0  0  0  0  0  0  0  0  0
   -9.8364    9.5732   16.8039 N   0  0  0  0  0  0  0  0  0  0  0  0
   -9.9868    9.3005   15.4909 C   0  0  0  0  0  0  0  0  0  0  0  0
  -10.9725   10.0123   14.7503 N   0  0  0  0  0  0  0  0  0  0  0  0
   -9.2282    8.3757   14.8747 N   0  0  0  0  0  0  0  0  0  0  0  0
   -8.3109    7.7336   15.6278 C   0  0  0  0  0  0  0  0  0  0  0  0
   -7.5945    6.8674   15.0682 O   0  0  0  0  0  0  0  0  0  0  0  0
   -8.1434    7.9951   16.9572 C   0  0  0  0  0  0  0  0  0  0  0  0
   -8.9303    8.9460   17.5698 C   0  0  0  0  0  0  0  0  0  0  0  0
   -5.9637    6.7951   19.7717 C   0  0  0  0  0  0  0  0  0  0  0  0
   -5.2916    5.9004   18.9431 O   0  0  0  0  0  0  0  0  0  0  0  0
  1  2  2  0
  2  3  1  0
  3  4  1  0
  5  6  2  0
  6  7  1  0
  6  8  1  0
  8  9  1  0
  9 10  2  0
  1 11  1  0
  9 11  1  0
  4 12  1  0
  5 12  1  0
 11 12  2  0
  2 13  1  0
 13 14  1  0
M  END
$$$$
