1HQ2_PH2_A_181
     RDKit          3D

 14 15  0  0  0  0  0  0  0  0999 V2000
   -7.1952    7.2441   17.8242 N   0  0  0  0  0  0  0  0  0  0  0  0
   -7.0396    7.4459   19.0840 C   0  0  0  0  0  0  0  0  0  0  0  0
   -7.8314    8.4428   19.8581 C   0  0  0  0  0  0  0  0  0  0  0  0
   -8.7801    9.1362   19.0066 N   0  0  0  0  0  0  0  0  0  0  0  0
   -9.8032    9.5339   16.8456 N   0  0  0  0  0  0  0  0  0  0  0  0
   -9.9277    9.2845   15.5254 C   0  0  0  0  0  0  0  0  0  0  0  0
  -10.8894   10.0193   14.7755 N   0  0  0  0  0  0  0  0  0  0  0  0
   -9.1657    8.3617   14.9104 N   0  0  0  0  0  0  0  0  0  0  0  0
   -8.2720    7.6973   15.6724 C   0  0  0  0  0  0  0  0  0  0  0  0
   -7.5528    6.8325   15.1141 O   0  0  0  0  0  0  0  0  0  0  0  0
   -8.1308    7.9350   17.0093 C   0  0  0  0  0  0  0  0  0  0  0  0
   -8.9208    8.8842   17.6205 C   0  0  0  0  0  0  0  0  0  0  0  0
   -6.0262    6.6648   19.8500 C   0  0  0  0  0  0  0  0  0  0  0  0
   -5.4796    5.6498   19.0691 O   0  0  0  0  0  0  0  0  0  0  0  0
  1  2  2  0
  2  3  1  0
  3  4  1  0
  5  6  2  0
  6  7  1  0
  6  8  1  0
  8  9  1  0
  9 10  2  0
  1 11  1  0
  9 11  1  0
  4 12  1  0
  5 12  1  0
 11 12  2  0
  2 13  1  0
 13 14  1  0
M  END
$$$$
