1HQ2_PH2_A_181
     RDKit          3D

 14 15  0  0  0  0  0  0  0  0999 V2000
   -7.2551    7.0954   17.8659 N   0  0  0  0  0  0  0  0  0  0  0  0
   -7.1015    7.2566   19.1318 C   0  0  0  0  0  0  0  0  0  0  0  0
   -7.8660    8.2565   19.9292 C   0  0  0  0  0  0  0  0  0  0  0  0
   -8.7862    9.0039   19.0922 N   0  0  0  0  0  0  0  0  0  0  0  0
   -9.7814    9.4951   16.9374 N   0  0  0  0  0  0  0  0  0  0  0  0
   -9.9050    9.2870   15.6100 C   0  0  0  0  0  0  0  0  0  0  0  0
  -10.8375   10.0734   14.8756 N   0  0  0  0  0  0  0  0  0  0  0  0
   -9.1690    8.3577   14.9736 N   0  0  0  0  0  0  0  0  0  0  0  0
   -8.3024    7.6435   15.7216 C   0  0  0  0  0  0  0  0  0  0  0  0
   -7.6076    6.7719   15.1432 O   0  0  0  0  0  0  0  0  0  0  0  0
   -8.1625    7.8388   17.0655 C   0  0  0  0  0  0  0  0  0  0  0  0
   -8.9256    8.7957   17.6987 C   0  0  0  0  0  0  0  0  0  0  0  0
   -6.1190    6.4219   19.8813 C   0  0  0  0  0  0  0  0  0  0  0  0
   -5.4846    5.5141   19.0373 O   0  0  0  0  0  0  0  0  0  0  0  0
  1  2  2  0
  2  3  1  0
  3  4  1  0
  5  6  2  0
  6  7  1  0
  6  8  1  0
  8  9  1  0
  9 10  2  0
  1 11  1  0
  9 11  1  0
  4 12  1  0
  5 12  1  0
 11 12  2  0
  2 13  1  0
 13 14  1  0
M  END
$$$$
