1HQ2_PH2_A_181
     RDKit          3D

 14 15  0  0  0  0  0  0  0  0999 V2000
   -7.1949    7.2802   17.8403 N   0  0  0  0  0  0  0  0  0  0  0  0
   -7.0439    7.4730   19.1022 C   0  0  0  0  0  0  0  0  0  0  0  0
   -7.8302    8.4728   19.8781 C   0  0  0  0  0  0  0  0  0  0  0  0
   -8.7679    9.1803   19.0260 N   0  0  0  0  0  0  0  0  0  0  0  0
   -9.7759    9.6005   16.8622 N   0  0  0  0  0  0  0  0  0  0  0  0
   -9.8960    9.3602   15.5399 C   0  0  0  0  0  0  0  0  0  0  0  0
  -10.8467   10.1086   14.7895 N   0  0  0  0  0  0  0  0  0  0  0  0
   -9.1396    8.4339   14.9233 N   0  0  0  0  0  0  0  0  0  0  0  0
   -8.2562    7.7565   15.6858 C   0  0  0  0  0  0  0  0  0  0  0  0
   -7.5423    6.8882   15.1260 O   0  0  0  0  0  0  0  0  0  0  0  0
   -8.1197    7.9848   17.0249 C   0  0  0  0  0  0  0  0  0  0  0  0
   -8.9038    8.9379   17.6377 C   0  0  0  0  0  0  0  0  0  0  0  0
   -6.0420    6.6778   19.8686 C   0  0  0  0  0  0  0  0  0  0  0  0
   -5.4761    5.6839   19.0744 O   0  0  0  0  0  0  0  0  0  0  0  0
  1  2  2  0
  2  3  1  0
  3  4  1  0
  5  6  2  0
  6  7  1  0
  6  8  1  0
  8  9  1  0
  9 10  2  0
  1 11  1  0
  9 11  1  0
  4 12  1  0
  5 12  1  0
 11 12  2  0
  2 13  1  0
 13 14  1  0
M  END
$$$$
