7UXS_OJC_A_501
     RDKit          3D

 35 39  0  0  0  0  0  0  0  0999 V2000
  -16.7464   30.3750  -13.4969 N   0  0  0  0  0  0  0  0  0  0  0  0
  -16.7995   29.1992  -14.1518 C   0  0  0  0  0  0  0  0  0  0  0  0
  -11.9537   28.2930  -16.9345 O   0  0  0  0  0  0  0  0  0  0  0  0
  -15.6225   31.1083  -13.4746 C   0  0  0  0  0  0  0  0  0  0  0  0
  -14.4928   30.6325  -14.1469 C   0  0  0  0  0  0  0  0  0  0  0  0
  -14.5466   29.4307  -14.8164 C   0  0  0  0  0  0  0  0  0  0  0  0
  -12.8545   26.7867  -23.5400 C   0  0  0  0  0  0  0  0  0  0  0  0
  -12.6923   26.2174  -22.1749 C   0  0  2  0  0  0  0  0  0  0  0  0
  -12.9678   24.7404  -22.0622 C   0  0  2  0  0  0  0  0  0  0  0  0
  -13.4330   24.6103  -20.6050 C   0  0  2  0  0  0  0  0  0  0  0  0
  -13.2027   26.0143  -20.1254 C   0  0  1  0  0  0  0  0  0  0  0  0
  -12.5780   30.2243  -15.0584 C   0  0  0  0  0  0  0  0  0  0  0  0
  -13.0652   28.0093  -16.1550 C   0  0  2  0  0  0  0  0  0  0  0  0
  -14.1643   27.5846  -17.0532 C   0  0  1  0  0  0  0  0  0  0  0  0
  -13.5460   27.5124  -18.4483 C   0  0  1  0  0  0  0  0  0  0  0  0
  -12.0950   27.6587  -18.1558 C   0  0  1  0  0  0  0  0  0  0  0  0
  -11.4221   28.5630  -19.1760 C   0  0  0  0  0  0  0  0  0  0  0  0
  -15.7174   28.7337  -14.8014 N   0  0  0  0  0  0  0  0  0  0  0  0
  -13.3494   29.1847  -15.3810 N   0  0  0  0  0  0  0  0  0  0  0  0
  -13.2457   31.1214  -14.3082 N   0  0  0  0  0  0  0  0  0  0  0  0
  -15.5421   32.3598  -12.7860 N   0  0  0  0  0  0  0  0  0  0  0  0
  -10.1825   28.0983  -19.5674 O   0  0  0  0  0  0  0  0  0  0  0  0
  -12.6145   23.7654  -19.8702 O   0  0  0  0  0  0  0  0  0  0  0  0
  -11.7328   24.0716  -22.1305 O   0  0  0  0  0  0  0  0  0  0  0  0
  -14.5512   26.2897  -16.6430 O   0  0  0  0  0  0  0  0  0  0  0  0
   -8.8192   28.0357  -21.8382 O   0  0  0  0  0  0  0  0  0  0  0  0
   -9.1749   30.3958  -20.7869 O   0  0  0  0  0  0  0  0  0  0  0  0
  -11.2986   28.9518  -21.8974 O   0  0  0  0  0  0  0  0  0  0  0  0
   -9.6399   28.8217  -23.8573 O   0  0  0  0  0  0  0  0  0  0  0  0
  -12.0072   29.8987  -24.3430 O   0  0  0  0  0  0  0  0  0  0  0  0
  -11.6153   27.1588  -24.0169 O   0  0  0  0  0  0  0  0  0  0  0  0
  -13.6390   26.7302  -21.2633 O   0  0  0  0  0  0  0  0  0  0  0  0
  -13.9359   26.3213  -19.0088 O   0  0  0  0  0  0  0  0  0  0  0  0
   -9.8227   28.8586  -21.0512 P   0  0  2  0  0  0  0  0  0  0  0  0
  -11.1229   28.6799  -23.5353 P   0  0  2  0  0  0  0  0  0  0  0  0
  1  2  2  0
  1  4  1  0
  4  5  2  0
  5  6  1  0
  8  7  1  6
  8  9  1  0
  9 10  1  0
 10 11  1  0
  3 13  1  0
 13 14  1  0
 14 15  1  0
  3 16  1  0
 15 16  1  0
 16 17  1  6
  2 18  1  0
  6 18  2  0
  6 19  1  0
 12 19  1  0
 13 19  1  6
  5 20  1  0
 12 20  2  0
  4 21  1  0
 17 22  1  0
 10 23  1  1
  9 24  1  1
 14 25  1  1
  7 31  1  0
 11 32  1  0
  8 32  1  0
 15 33  1  1
 11 33  1  1
 28 34  1  0
 22 34  1  0
 34 27  1  1
 26 34  2  0
 35 30  1  6
 28 35  1  0
 31 35  1  0
 29 35  2  0
M  END
$$$$
