
     RDKit          3D

 17 18  0  0  0  0  0  0  0  0999 V2000
   29.7801    4.0368   56.3181 N   0  0  0  0  0  0  0  0  0  0  0  0
   29.1520    4.7412   55.3814 C   0  0  0  0  0  0  0  0  0  0  0  0
   29.3845    4.2115   57.5862 C   0  0  0  0  0  0  0  0  0  0  0  0
   28.3642    5.0946   57.9520 C   0  0  0  0  0  0  0  0  0  0  0  0
   27.7868    5.7994   56.8951 C   0  0  0  0  0  0  0  0  0  0  0  0
   28.1866    5.6301   55.6148 N   0  0  0  0  0  0  0  0  0  0  0  0
   27.9405    5.2641   59.3482 C   0  0  0  0  0  0  0  0  0  0  0  0
   28.5845    6.1898   60.1858 C   0  0  0  0  0  0  0  0  0  0  0  0
   28.1849    6.3465   61.5158 C   0  0  0  0  0  0  0  0  0  0  0  0
   27.1379    5.5780   62.0192 C   0  0  0  0  0  0  0  0  0  0  0  0
   26.4871    4.6545   61.2046 C   0  0  0  0  0  0  0  0  0  0  0  0
   26.8871    4.4982   59.8747 C   0  0  0  0  0  0  0  0  0  0  0  0
   30.0593    3.4378   58.5500 N   0  0  0  0  0  0  0  0  0  0  0  0
   29.5629    4.5770   54.0751 N   0  0  0  0  0  0  0  0  0  0  0  0
   26.6725    6.7976   57.1399 C   0  0  0  0  0  0  0  0  0  0  0  0
   25.2682    6.2747   56.8578 C   0  0  0  0  0  0  0  0  0  0  0  0
   26.6460    5.7707   63.6557 Cl  0  0  0  0  0  0  0  0  0  0  0  0
  1  2  4  0
  1  3  4  0
  3  4  4  0
  4  5  4  0
  2  6  4  0
  5  6  4  0
  4  7  1  0
  7  8  4  0
  8  9  4  0
  9 10  4  0
 10 11  4  0
  7 12  4  0
 11 12  4  0
  3 13  1  0
  2 14  1  0
  5 15  1  0
 15 16  1  0
 10 17  1  0
M  END
