
     RDKit          3D

 29 32  0  0  0  0  0  0  0  0999 V2000
   -9.9940   33.9784   11.9943 C   0  0  0  0  0  0  0  0  0  0  0  0
  -10.4230   33.7290   10.6142 N   0  0  0  0  0  0  0  0  0  0  0  0
  -10.3274   34.9884    9.8606 C   0  0  0  0  0  0  0  0  0  0  0  0
   -9.6384   32.6443    9.9564 C   0  0  0  0  0  0  0  0  0  0  0  0
  -10.0285   32.3873    8.4872 C   0  0  0  0  0  0  0  0  0  0  0  0
   -9.2667   31.1848    7.9103 C   0  0  0  0  0  0  0  0  0  0  0  0
   -7.3143   32.3324    8.8839 C   0  0  0  0  0  0  0  0  0  0  0  0
   -7.9296   31.0635    8.4968 N   0  0  0  0  0  0  0  0  0  0  0  0
   -8.1197   32.9526   10.0258 C   0  0  0  0  0  0  0  0  0  0  0  0
   -7.1205   29.9689    8.2018 C   0  0  0  0  0  0  0  0  0  0  0  0
   -6.1658   29.5023    9.1297 C   0  0  0  0  0  0  0  0  0  0  0  0
   -5.3443   28.3961    8.8754 C   0  0  0  0  0  0  0  0  0  0  0  0
   -5.4866   27.7173    7.6636 C   0  0  0  0  0  0  0  0  0  0  0  0
   -6.4347   28.1353    6.7352 C   0  0  0  0  0  0  0  0  0  0  0  0
   -7.2425   29.2424    7.0084 C   0  0  0  0  0  0  0  0  0  0  0  0
   -4.3769   27.8988    9.7760 N   0  0  0  0  0  0  0  0  0  0  0  0
   -4.2334   26.6089   10.2463 C   0  0  0  0  0  0  0  0  0  0  0  0
   -4.9018   25.6412    9.8995 O   0  0  0  0  0  0  0  0  0  0  0  0
   -3.1853   26.4464   11.2407 C   0  0  0  0  0  0  0  0  0  0  0  0
   -2.5165   27.3326   12.0676 C   0  0  0  0  0  0  0  0  0  0  0  0
   -1.5724   26.5998   12.8429 C   0  0  0  0  0  0  0  0  0  0  0  0
   -1.6793   25.2588   12.4741 C   0  0  0  0  0  0  0  0  0  0  0  0
   -0.8870   24.2417   13.0425 C   0  0  0  0  0  0  0  0  0  0  0  0
   -0.9750   22.7904   12.6663 C   0  0  0  0  0  0  0  0  0  0  0  0
    0.0389   24.6449   14.0268 C   0  0  0  0  0  0  0  0  0  0  0  0
    0.1671   25.9774   14.4137 C   0  0  0  0  0  0  0  0  0  0  0  0
   -0.6331   26.9533   13.8262 C   0  0  0  0  0  0  0  0  0  0  0  0
   -0.4985   28.2315   14.2097 F   0  0  0  0  0  0  0  0  0  0  0  0
   -2.6584   25.1992   11.5085 N   0  0  0  0  0  0  0  0  0  0  0  0
  1  2  1  0
  2  3  1  0
  2  4  1  0
  4  5  1  0
  5  6  1  0
  7  8  1  0
  6  8  1  0
  7  9  1  0
  4  9  1  0
  8 10  1  0
 10 11  4  0
 11 12  4  0
 12 13  4  0
 13 14  4  0
 14 15  4  0
 10 15  4  0
 12 16  1  0
 16 17  1  0
 17 18  2  0
 17 19  1  0
 19 20  4  0
 20 21  4  0
 21 22  4  0
 22 23  4  0
 23 24  1  0
 23 25  4  0
 25 26  4  0
 21 27  4  0
 26 27  4  0
 27 28  1  0
 19 29  4  0
 22 29  4  0
M  END
