1P62_GEO_B_302
     RDKit          3D

 18 19  0  0  0  0  0  0  0  0999 V2000
   69.9209   38.1612   21.1666 O   0  0  0  0  0  0  0  0  0  0  0  0
   70.6279   37.1205   21.7594 C   0  0  0  0  0  0  0  0  0  0  0  0
   70.1686   35.7800   21.2470 C   0  0  1  0  0  0  0  0  0  0  0  0
   68.8416   35.7698   20.8282 O   0  0  0  0  0  0  0  0  0  0  0  0
   68.8237   34.7055   19.9452 C   0  0  1  0  0  0  0  0  0  0  0  0
   67.5992   34.4544   19.2803 N   0  0  0  0  0  0  0  0  0  0  0  0
   66.7288   35.4971   19.1325 C   0  0  0  0  0  0  0  0  0  0  0  0
   65.5086   35.3268   18.4912 C   0  0  0  0  0  0  0  0  0  0  0  0
   65.1707   34.0700   17.9920 C   0  0  0  0  0  0  0  0  0  0  0  0
   66.0600   33.0488   18.1548 N   0  0  0  0  0  0  0  0  0  0  0  0
   67.2479   33.2491   18.7883 C   0  0  0  0  0  0  0  0  0  0  0  0
   68.0468   32.2605   18.9157 O   0  0  0  0  0  0  0  0  0  0  0  0
   63.9270   33.8662   17.3304 N   0  0  0  0  0  0  0  0  0  0  0  0
   69.9494   35.1454   19.0055 C   0  0  2  0  0  0  0  0  0  0  0  0
   69.6441   36.3633   18.4173 F   0  0  0  0  0  0  0  0  0  0  0  0
   70.2881   34.1696   18.1234 F   0  0  0  0  0  0  0  0  0  0  0  0
   71.0199   35.4449   20.0421 C   0  0  2  0  0  0  0  0  0  0  0  0
   71.7473   34.2597   20.2664 O   0  0  0  0  0  0  0  0  0  0  0  0
  1  2  1  0
  3  2  1  6
  3  4  1  0
  4  5  1  0
  5  6  1  6
  6  7  1  0
  7  8  2  0
  8  9  1  0
  9 10  2  0
  6 11  1  0
 10 11  1  0
 11 12  2  0
  9 13  1  0
  5 14  1  0
 14 15  1  6
 14 16  1  0
  3 17  1  0
 14 17  1  0
 17 18  1  1
M  END
$$$$
