1P62_GEO_B_302
     RDKit          3D

 18 19  0  0  0  0  0  0  0  0999 V2000
   69.9069   38.0545   21.2645 O   0  0  0  0  0  0  0  0  0  0  0  0
   70.6916   37.0081   21.7373 C   0  0  0  0  0  0  0  0  0  0  0  0
   70.2169   35.6800   21.2069 C   0  0  1  0  0  0  0  0  0  0  0  0
   68.8833   35.6845   20.8095 O   0  0  0  0  0  0  0  0  0  0  0  0
   68.8455   34.6374   19.9068 C   0  0  1  0  0  0  0  0  0  0  0  0
   67.6090   34.4053   19.2572 N   0  0  0  0  0  0  0  0  0  0  0  0
   66.7365   35.4517   19.1551 C   0  0  0  0  0  0  0  0  0  0  0  0
   65.5049   35.2996   18.5314 C   0  0  0  0  0  0  0  0  0  0  0  0
   65.1575   34.0576   18.0025 C   0  0  0  0  0  0  0  0  0  0  0  0
   66.0493   33.0324   18.1199 N   0  0  0  0  0  0  0  0  0  0  0  0
   67.2486   33.2145   18.7372 C   0  0  0  0  0  0  0  0  0  0  0  0
   68.0493   32.2229   18.8217 O   0  0  0  0  0  0  0  0  0  0  0  0
   63.9021   33.8727   17.3578 N   0  0  0  0  0  0  0  0  0  0  0  0
   69.9582   35.0896   18.9575 C   0  0  2  0  0  0  0  0  0  0  0  0
   69.6500   36.3200   18.3978 F   0  0  0  0  0  0  0  0  0  0  0  0
   70.2774   34.1292   18.0516 F   0  0  0  0  0  0  0  0  0  0  0  0
   71.0469   35.3637   19.9821 C   0  0  2  0  0  0  0  0  0  0  0  0
   71.7715   34.1708   20.1720 O   0  0  0  0  0  0  0  0  0  0  0  0
  1  2  1  0
  3  2  1  6
  3  4  1  0
  4  5  1  0
  5  6  1  6
  6  7  1  0
  7  8  2  0
  8  9  1  0
  9 10  2  0
  6 11  1  0
 10 11  1  0
 11 12  2  0
  9 13  1  0
  5 14  1  0
 14 15  1  6
 14 16  1  0
  3 17  1  0
 14 17  1  0
 17 18  1  1
M  END
$$$$
