1P62_GEO_B_302
     RDKit          3D

 18 19  0  0  0  0  0  0  0  0999 V2000
   70.0500   38.1874   21.0135 O   0  0  0  0  0  0  0  0  0  0  0  0
   70.7942   37.1416   21.5491 C   0  0  0  0  0  0  0  0  0  0  0  0
   70.3373   35.8093   21.0140 C   0  0  1  0  0  0  0  0  0  0  0  0
   68.9814   35.7701   20.7037 O   0  0  0  0  0  0  0  0  0  0  0  0
   68.9248   34.7454   19.7767 C   0  0  1  0  0  0  0  0  0  0  0  0
   67.6583   34.4801   19.2020 N   0  0  0  0  0  0  0  0  0  0  0  0
   66.7736   35.5166   19.1033 C   0  0  0  0  0  0  0  0  0  0  0  0
   65.5126   35.3324   18.5509 C   0  0  0  0  0  0  0  0  0  0  0  0
   65.1480   34.0680   18.0912 C   0  0  0  0  0  0  0  0  0  0  0  0
   66.0525   33.0534   18.2033 N   0  0  0  0  0  0  0  0  0  0  0  0
   67.2806   33.2672   18.7498 C   0  0  0  0  0  0  0  0  0  0  0  0
   68.0923   32.2843   18.8325 O   0  0  0  0  0  0  0  0  0  0  0  0
   63.8624   33.8500   17.5205 N   0  0  0  0  0  0  0  0  0  0  0  0
   69.9547   35.2656   18.7705 C   0  0  2  0  0  0  0  0  0  0  0  0
   69.5634   36.4963   18.2660 F   0  0  0  0  0  0  0  0  0  0  0  0
   70.2505   34.3418   17.8196 F   0  0  0  0  0  0  0  0  0  0  0  0
   71.0968   35.5574   19.7299 C   0  0  2  0  0  0  0  0  0  0  0  0
   71.8776   34.3902   19.8397 O   0  0  0  0  0  0  0  0  0  0  0  0
  1  2  1  0
  3  2  1  6
  3  4  1  0
  4  5  1  0
  5  6  1  6
  6  7  1  0
  7  8  2  0
  8  9  1  0
  9 10  2  0
  6 11  1  0
 10 11  1  0
 11 12  2  0
  9 13  1  0
  5 14  1  0
 14 15  1  6
 14 16  1  0
  3 17  1  0
 14 17  1  0
 17 18  1  1
M  END
$$$$
