1P62_GEO_B_302
     RDKit          3D

 18 19  0  0  0  0  0  0  0  0999 V2000
   53.7427   21.3784   29.6125 O   0  0  0  0  0  0  0  0  0  0  0  0
   55.1187   21.2763   29.7867 C   0  0  0  0  0  0  0  0  0  0  0  0
   55.8654   21.7492   28.5664 C   0  0  1  0  0  0  0  0  0  0  0  0
   55.2465   22.8101   27.9123 O   0  0  0  0  0  0  0  0  0  0  0  0
   56.3044   23.3936   27.2393 C   0  0  1  0  0  0  0  0  0  0  0  0
   56.0162   24.5674   26.5019 N   0  0  0  0  0  0  0  0  0  0  0  0
   55.0389   25.3950   26.9779 C   0  0  0  0  0  0  0  0  0  0  0  0
   54.7011   26.5642   26.3086 C   0  0  0  0  0  0  0  0  0  0  0  0
   55.3726   26.8947   25.1327 C   0  0  0  0  0  0  0  0  0  0  0  0
   56.3432   26.0487   24.6826 N   0  0  0  0  0  0  0  0  0  0  0  0
   56.6502   24.9102   25.3623 C   0  0  0  0  0  0  0  0  0  0  0  0
   57.5672   24.1507   24.8997 O   0  0  0  0  0  0  0  0  0  0  0  0
   55.0474   28.0865   24.4258 N   0  0  0  0  0  0  0  0  0  0  0  0
   57.2479   23.6316   28.4212 C   0  0  2  0  0  0  0  0  0  0  0  0
   56.6546   24.4648   29.3572 F   0  0  0  0  0  0  0  0  0  0  0  0
   58.4802   24.0353   28.0170 F   0  0  0  0  0  0  0  0  0  0  0  0
   57.2191   22.2397   29.0313 C   0  0  2  0  0  0  0  0  0  0  0  0
   58.2484   21.4854   28.4348 O   0  0  0  0  0  0  0  0  0  0  0  0
  1  2  1  0
  3  2  1  1
  3  4  1  0
  4  5  1  0
  5  6  1  1
  6  7  1  0
  7  8  2  0
  8  9  1  0
  9 10  2  0
  6 11  1  0
 10 11  1  0
 11 12  2  0
  9 13  1  0
  5 14  1  0
 14 15  1  1
 14 16  1  0
  3 17  1  0
 14 17  1  0
 17 18  1  6
M  END
$$$$
