1P62_GEO_B_302
     RDKit          3D

 18 19  0  0  0  0  0  0  0  0999 V2000
   70.0294   38.1606   21.0765 O   0  0  0  0  0  0  0  0  0  0  0  0
   70.7832   37.1235   21.6154 C   0  0  0  0  0  0  0  0  0  0  0  0
   70.3134   35.7824   21.1143 C   0  0  1  0  0  0  0  0  0  0  0  0
   68.9664   35.7598   20.7658 O   0  0  0  0  0  0  0  0  0  0  0  0
   68.9145   34.7039   19.8742 C   0  0  1  0  0  0  0  0  0  0  0  0
   67.6596   34.4441   19.2722 N   0  0  0  0  0  0  0  0  0  0  0  0
   66.7941   35.4910   19.1258 C   0  0  0  0  0  0  0  0  0  0  0  0
   65.5454   35.3127   18.5443 C   0  0  0  0  0  0  0  0  0  0  0  0
   65.1734   34.0434   18.1046 C   0  0  0  0  0  0  0  0  0  0  0  0
   66.0587   33.0183   18.2644 N   0  0  0  0  0  0  0  0  0  0  0  0
   67.2751   33.2266   18.8384 C   0  0  0  0  0  0  0  0  0  0  0  0
   68.0689   32.2339   18.9656 O   0  0  0  0  0  0  0  0  0  0  0  0
   63.9000   33.8312   17.5050 N   0  0  0  0  0  0  0  0  0  0  0  0
   69.9837   35.1666   18.8810 C   0  0  2  0  0  0  0  0  0  0  0  0
   69.6335   36.3861   18.3222 F   0  0  0  0  0  0  0  0  0  0  0  0
   70.2869   34.2034   17.9725 F   0  0  0  0  0  0  0  0  0  0  0  0
   71.1038   35.4693   19.8629 C   0  0  2  0  0  0  0  0  0  0  0  0
   71.8560   34.2910   20.0366 O   0  0  0  0  0  0  0  0  0  0  0  0
  1  2  1  0
  3  2  1  6
  3  4  1  0
  4  5  1  0
  5  6  1  6
  6  7  1  0
  7  8  2  0
  8  9  1  0
  9 10  2  0
  6 11  1  0
 10 11  1  0
 11 12  2  0
  9 13  1  0
  5 14  1  0
 14 15  1  6
 14 16  1  0
  3 17  1  0
 14 17  1  0
 17 18  1  1
M  END
$$$$
