7ZTL_BCN_A_506
     RDKit          3D

 11 10  0  0  0  0  0  0  0  0999 V2000
  -26.1342   33.1526   -9.8669 N   0  0  0  0  0  0  0  0  0  0  0  0
  -24.8395   32.8540  -10.3962 C   0  0  0  0  0  0  0  0  0  0  0  0
  -24.4646   33.5895  -11.6102 C   0  0  0  0  0  0  0  0  0  0  0  0
  -24.2146   34.8287  -11.5176 O   0  0  0  0  0  0  0  0  0  0  0  0
  -24.3636   33.0106  -12.8714 O   0  0  0  0  0  0  0  0  0  0  0  0
  -26.8256   32.0676   -9.2873 C   0  0  0  0  0  0  0  0  0  0  0  0
  -26.8214   30.8172  -10.1460 C   0  0  0  0  0  0  0  0  0  0  0  0
  -27.8269   29.9352   -9.7659 O   0  0  0  0  0  0  0  0  0  0  0  0
  -26.3718   34.4594   -9.4629 C   0  0  0  0  0  0  0  0  0  0  0  0
  -27.6391   34.7010   -8.6823 C   0  0  0  0  0  0  0  0  0  0  0  0
  -28.5627   35.4454   -9.4591 O   0  0  0  0  0  0  0  0  0  0  0  0
  2  1  1  6
  2  3  1  0
  3  4  2  0
  3  5  1  0
  6  1  1  1
  6  7  1  0
  7  8  1  1
  9  1  1  1
  9 10  1  0
 10 11  1  1
M  END
$$$$
