7RSV_7IQ_B_901
     RDKit          3D

 40 43  0  0  0  0  0  0  0  0999 V2000
   -2.5425  -15.2702   -0.2209 C   0  0  0  0  0  0  0  0  0  0  0  0
    1.9469   -9.7205    1.3151 C   0  0  2  0  0  0  0  0  0  0  0  0
   -2.3086  -13.7813   -1.9673 C   0  0  0  0  0  0  0  0  0  0  0  0
    1.4432  -11.9667    2.2673 C   0  0  0  0  0  0  0  0  0  0  0  0
   -0.9532  -13.2579   -1.4848 C   0  0  0  0  0  0  0  0  0  0  0  0
    0.1416  -12.7543    0.7183 C   0  0  0  0  0  0  0  0  0  0  0  0
    0.6850  -13.0745    1.9583 C   0  0  0  0  0  0  0  0  0  0  0  0
   -0.1344  -15.9525    0.1775 C   0  0  0  0  0  0  0  0  0  0  0  0
    2.6035   -9.3712   -0.0164 C   0  0  0  0  0  0  0  0  0  0  0  0
    4.0325   -9.8925    0.0746 C   0  0  0  0  0  0  0  0  0  0  0  0
    4.3672  -10.0197    1.5611 C   0  0  0  0  0  0  0  0  0  0  0  0
    3.1081   -9.6197    2.3315 C   0  0  2  0  0  0  0  0  0  0  0  0
   -1.2051  -14.8862    0.4378 C   0  0  1  0  0  0  0  0  0  0  0  0
    2.2113  -11.6916    3.4702 C   0  0  0  0  0  0  0  0  0  0  0  0
    1.3658  -11.0715    1.2742 N   0  0  0  0  0  4  0  0  0  0  0  0
    0.5565  -11.5272    0.3314 N   0  0  0  0  0  0  0  0  0  0  0  0
    2.9299  -10.4578    3.5280 N   0  0  0  0  0  0  0  0  0  0  0  0
   -0.7499  -13.5778   -0.0646 N   0  0  0  0  0  0  0  0  0  0  0  0
    2.2345  -12.5000    4.4359 O   0  0  0  0  0  0  0  0  0  0  0  0
   -2.4730  -15.1427   -1.6271 O   0  0  0  0  0  0  0  0  0  0  0  0
   -3.3681  -14.6488    0.1969 H   0  0  0  0  0  0  0  0  0  0  0  0
   -2.7929  -16.3237    0.0280 H   0  0  0  0  0  0  0  0  0  0  0  0
    1.1464   -8.9893    1.5630 H   0  0  0  0  0  0  0  0  0  0  0  0
   -3.1361  -13.1580   -1.5567 H   0  0  0  0  0  0  0  0  0  0  0  0
   -2.3525  -13.6866   -3.0728 H   0  0  0  0  0  0  0  0  0  0  0  0
   -0.1399  -13.7223   -2.0832 H   0  0  0  0  0  0  0  0  0  0  0  0
   -0.9284  -12.1591   -1.6501 H   0  0  0  0  0  0  0  0  0  0  0  0
    0.5491  -13.9656    2.5553 H   0  0  0  0  0  0  0  0  0  0  0  0
    0.0484  -16.0670   -0.9121 H   0  0  0  0  0  0  0  0  0  0  0  0
    0.8184  -15.6642    0.6693 H   0  0  0  0  0  0  0  0  0  0  0  0
   -0.4574  -16.9302    0.5939 H   0  0  0  0  0  0  0  0  0  0  0  0
    2.0678   -9.8009   -0.8900 H   0  0  0  0  0  0  0  0  0  0  0  0
    2.6250   -8.2646   -0.1305 H   0  0  0  0  0  0  0  0  0  0  0  0
    4.7360   -9.1992   -0.4360 H   0  0  0  0  0  0  0  0  0  0  0  0
    4.0965  -10.8906   -0.4126 H   0  0  0  0  0  0  0  0  0  0  0  0
    4.6550  -11.0705    1.7878 H   0  0  0  0  0  0  0  0  0  0  0  0
    5.2153   -9.3541    1.8332 H   0  0  0  0  0  0  0  0  0  0  0  0
    3.2048   -8.5568    2.6489 H   0  0  0  0  0  0  0  0  0  0  0  0
   -1.3918  -14.8313    1.5315 H   0  0  0  0  0  0  0  0  0  0  0  0
    3.4784  -10.2299    4.3877 H   0  0  0  0  0  0  0  0  0  0  0  0
  3  5  1  0
  4  7  4  0
  6  7  4  0
  2  9  1  0
  9 10  1  0
 10 11  1  0
 12 11  1  0
  2 12  1  0
 13  8  1  0
  1 13  1  0
  4 14  1  0
  2 15  1  0
  4 15  4  0
 15 16  4  0
  6 16  4  0
 12 17  1  0
 14 17  1  0
  6 18  1  0
  5 18  1  0
 13 18  1  0
 14 19  2  0
  3 20  1  0
  1 20  1  0
  1 21  1  0
  1 22  1  0
  2 23  1  1
  3 24  1  0
  3 25  1  0
  5 26  1  0
  5 27  1  0
  7 28  1  0
  8 29  1  0
  8 30  1  0
  8 31  1  0
  9 32  1  0
  9 33  1  0
 10 34  1  0
 10 35  1  0
 11 36  1  0
 11 37  1  0
 12 38  1  1
 13 39  1  1
 17 40  1  0
M  CHG  1  15   1
M  END
