7UP3_NZ0_B_305
     RDKit          3D

 35 37  0  0  0  0  0  0  0  0999 V2000
    0.4162    0.0394   -1.1809 C   0  0  0  0  0  0  0  0  0  0  0  0
    0.5282    1.0968   -0.2643 C   0  0  0  0  0  0  0  0  0  0  0  0
    1.6955    1.1731    0.6470 C   0  0  0  0  0  0  0  0  0  0  0  0
    1.6820    0.5987    1.9448 C   0  0  0  0  0  0  0  0  0  0  0  0
   -0.4861    2.0667   -0.2067 C   0  0  0  0  0  0  0  0  0  0  0  0
    2.8591    1.8006    0.1829 C   0  0  0  0  0  0  0  0  0  0  0  0
   -3.6628   -0.2427   -2.6368 O   0  0  0  0  0  0  0  0  0  0  0  0
    1.5927    0.0162    4.9755 O   0  0  0  0  0  0  0  0  0  0  0  0
   -1.2502   -1.2433    2.6834 N   0  0  0  0  0  4  0  0  0  0  0  0
   -2.8619    0.8691   -2.9295 C   0  0  0  0  0  0  0  0  0  0  0  0
   -1.2941   -0.3357    3.6430 N   0  0  0  0  0  0  0  0  0  0  0  0
   -0.2420    0.4589    3.5354 N   0  0  0  0  0  0  0  0  0  0  0  0
    2.8631    0.6723    2.7285 C   0  0  0  0  0  0  0  0  0  0  0  0
    2.9725    0.0522    4.3806 S   0  0  2  0  0  6  0  0  0  0  0  0
    3.5248   -1.3455    4.3918 O   0  0  0  0  0  0  0  0  0  0  0  0
    3.9690    1.0890    5.3424 N   0  0  0  0  0  0  0  0  0  0  0  0
    0.4414   -0.0129    2.4728 C   0  0  0  0  0  0  0  0  0  0  0  0
   -0.1818   -1.0732    1.9251 N   0  0  0  0  0  0  0  0  0  0  0  0
    3.9679    1.2824    2.2222 N   0  0  0  0  0  0  0  0  0  0  0  0
    3.9924    1.8391    0.9869 C   0  0  0  0  0  0  0  0  0  0  0  0
   -1.5861    1.9899   -1.0653 C   0  0  0  0  0  0  0  0  0  0  0  0
   -1.6981    0.9312   -1.9792 C   0  0  0  0  0  0  0  0  0  0  0  0
   -0.6847   -0.0374   -2.0390 C   0  0  0  0  0  0  0  0  0  0  0  0
    1.1888   -0.7173   -1.2407 H   0  0  0  0  0  0  0  0  0  0  0  0
   -0.4246    2.8825    0.5032 H   0  0  0  0  0  0  0  0  0  0  0  0
    2.8953    2.2387   -0.8074 H   0  0  0  0  0  0  0  0  0  0  0  0
   -3.1817   -1.0385   -2.9852 H   0  0  0  0  0  0  0  0  0  0  0  0
   -1.9648   -1.9904    2.5413 H   0  0  0  0  0  0  0  0  0  0  0  0
   -3.4775    1.7884   -2.8310 H   0  0  0  0  0  0  0  0  0  0  0  0
   -2.5095    0.8271   -3.9855 H   0  0  0  0  0  0  0  0  0  0  0  0
    4.8205    1.3156    4.7835 H   0  0  0  0  0  0  0  0  0  0  0  0
    3.4476    1.9862    5.4619 H   0  0  0  0  0  0  0  0  0  0  0  0
    4.8965    2.3131    0.6287 H   0  0  0  0  0  0  0  0  0  0  0  0
   -2.3513    2.7547   -1.0160 H   0  0  0  0  0  0  0  0  0  0  0  0
   -0.7464   -0.8513   -2.7508 H   0  0  0  0  0  0  0  0  0  0  0  0
  1  2  4  0
  2  3  1  0
  3  4  4  0
  2  5  4  0
  3  6  4  0
  7 10  1  0
  9 11  4  0
 11 12  4  0
  4 13  4  0
  8 14  2  0
 13 14  1  0
 14 15  2  0
 14 16  1  6
  4 17  1  0
 12 17  4  0
 17 18  4  0
  9 18  4  0
 13 19  4  0
 19 20  4  0
  6 20  4  0
  5 21  4  0
 21 22  4  0
 10 22  1  0
  1 23  4  0
 22 23  4  0
  1 24  1  0
  5 25  1  0
  6 26  1  0
  7 27  1  0
  9 28  1  0
 10 29  1  0
 10 30  1  0
 16 31  1  0
 16 32  1  0
 20 33  1  0
 21 34  1  0
 23 35  1  0
M  CHG  1   9   1
M  END
