7NPL_UKZ_A_401
     RDKit          3D

 50 52  0  0  0  0  0  0  0  0999 V2000
    0.5255    2.1176    2.1719 C   0  0  0  0  0  0  0  0  0  0  0  0
    0.2188    2.9079    3.2649 C   0  0  0  0  0  0  0  0  0  0  0  0
    0.9018    4.9814    2.2291 C   0  0  0  0  0  0  0  0  0  0  0  0
    1.6967    3.0180    3.4415 C   0  0  0  0  0  0  0  0  0  0  0  0
    0.0471    4.1401    1.4504 C   0  0  0  0  0  0  0  0  0  0  0  0
   -0.8747    4.6882    0.3847 C   0  0  0  0  0  0  0  0  0  0  0  0
    1.7930    9.9539    4.8257 C   0  0  0  0  0  0  0  0  0  0  0  0
    1.6735    8.7970    3.8380 C   0  0  0  0  0  0  0  0  0  0  0  0
    0.2405    8.6733    3.2994 C   0  0  0  0  0  0  0  0  0  0  0  0
   -0.1374    7.2077    2.9860 C   0  0  2  0  0  0  0  0  0  0  0  0
   -0.4006    6.4492    4.2186 N   0  0  0  0  0  0  0  0  0  0  0  0
   -0.7010    5.0430    4.2548 C   0  0  0  0  0  0  0  0  0  0  0  0
   -1.2259    4.5393    5.2835 O   0  0  0  0  0  0  0  0  0  0  0  0
   -0.3704    4.1757    3.0995 C   0  0  0  0  0  0  0  0  0  0  0  0
   -0.6113    4.6177    1.7784 C   0  0  0  0  0  0  0  0  0  0  0  0
   -0.2846    3.8075    0.6754 C   0  0  0  0  0  0  0  0  0  0  0  0
    0.2849    2.5422    0.8682 C   0  0  0  0  0  0  0  0  0  0  0  0
    1.0728    0.8686    2.5498 N   0  0  0  0  0  0  0  0  0  0  0  0
    1.0938    0.9000    3.9706 C   0  0  0  0  0  0  0  0  0  0  0  0
    1.5149   -0.0585    4.6696 O   0  0  0  0  0  0  0  0  0  0  0  0
    0.5670    2.1843    4.5336 C   0  0  0  0  0  0  0  0  0  0  0  0
    0.9405    6.5056    2.1091 C   0  0  2  0  0  0  0  0  0  0  0  0
    0.8069    6.8722    0.7588 O   0  0  0  0  0  0  0  0  0  0  0  0
    1.7314    4.3883    3.2030 C   0  0  0  0  0  0  0  0  0  0  0  0
    0.8300    2.2065    2.7210 C   0  0  0  0  0  0  0  0  0  0  0  0
    0.0031    2.7528    1.7379 C   0  0  0  0  0  0  0  0  0  0  0  0
   -1.1015    1.6558    0.9100 Cl  0  0  0  0  0  0  0  0  0  0  0  0
    2.3322    2.5861    4.2041 H   0  0  0  0  0  0  0  0  0  0  0  0
   -0.4871    5.6092   -0.0849 H   0  0  0  0  0  0  0  0  0  0  0  0
   -0.9907    3.9679   -0.4508 H   0  0  0  0  0  0  0  0  0  0  0  0
   -1.8733    4.8883    0.8258 H   0  0  0  0  0  0  0  0  0  0  0  0
    1.5272   10.9123    4.3308 H   0  0  0  0  0  0  0  0  0  0  0  0
    2.8384   10.0221    5.1936 H   0  0  0  0  0  0  0  0  0  0  0  0
    1.1208    9.7907    5.6950 H   0  0  0  0  0  0  0  0  0  0  0  0
    1.9646    7.8546    4.3509 H   0  0  0  0  0  0  0  0  0  0  0  0
    2.3804    8.9745    2.9989 H   0  0  0  0  0  0  0  0  0  0  0  0
    0.1287    9.3084    2.3958 H   0  0  0  0  0  0  0  0  0  0  0  0
   -0.4584    9.0658    4.0698 H   0  0  0  0  0  0  0  0  0  0  0  0
   -1.0831    7.2522    2.4068 H   0  0  0  0  0  0  0  0  0  0  0  0
   -0.4474    6.9913    5.1106 H   0  0  0  0  0  0  0  0  0  0  0  0
   -1.0310    5.5973    1.5908 H   0  0  0  0  0  0  0  0  0  0  0  0
   -0.4728    4.1649   -0.3287 H   0  0  0  0  0  0  0  0  0  0  0  0
    0.5316    1.9115    0.0239 H   0  0  0  0  0  0  0  0  0  0  0  0
    1.3768    0.0891    1.9252 H   0  0  0  0  0  0  0  0  0  0  0  0
    1.3632    2.7169    5.0949 H   0  0  0  0  0  0  0  0  0  0  0  0
   -0.3370    2.0053    5.1532 H   0  0  0  0  0  0  0  0  0  0  0  0
    1.9363    6.8593    2.4699 H   0  0  0  0  0  0  0  0  0  0  0  0
    1.2889    7.7308    0.6323 H   0  0  0  0  0  0  0  0  0  0  0  0
    2.3979    4.9927    3.8058 H   0  0  0  0  0  0  0  0  0  0  0  0
    0.7954    1.1455    2.9339 H   0  0  0  0  0  0  0  0  0  0  0  0
  1  2  4  0
  3  5  4  0
  5  6  1  0
  7  8  1  0
  8  9  1  0
 10  9  1  0
 10 11  1  0
 11 12  1  0
 12 13  2  0
  2 14  4  0
 12 14  1  0
 14 15  4  0
 15 16  4  0
 16 17  4  0
  1 17  4  0
  1 18  1  0
 18 19  1  0
 19 20  2  0
 19 21  1  0
  2 21  1  0
 10 22  1  0
  3 22  1  0
 22 23  1  0
  3 24  4  0
  4 24  4  0
  4 25  4  0
  5 26  4  0
 25 26  4  0
 26 27  1  0
  4 28  1  0
  6 29  1  0
  6 30  1  0
  6 31  1  0
  7 32  1  0
  7 33  1  0
  7 34  1  0
  8 35  1  0
  8 36  1  0
  9 37  1  0
  9 38  1  0
 10 39  1  1
 11 40  1  0
 15 41  1  0
 16 42  1  0
 17 43  1  0
 18 44  1  0
 21 45  1  0
 21 46  1  0
 22 47  1  6
 23 48  1  0
 24 49  1  0
 25 50  1  0
M  END
