7D8Q_GZF_A_201
     RDKit          3D

 43 45  0  0  0  0  0  0  0  0999 V2000
  -34.8579   -5.2284   24.3315 O   0  0  0  0  0  0  0  0  0  0  0  0
  -35.3759   -3.9774   23.9484 C   0  0  1  0  0  0  0  0  0  0  0  0
  -34.2752   -3.0811   23.3781 C   0  0  1  0  0  0  0  0  0  0  0  0
  -32.9186   -3.2555   24.0690 C   0  0  2  0  0  0  0  0  0  0  0  0
  -32.0569   -2.2255   23.6471 O   0  0  0  0  0  0  0  0  0  0  0  0
  -30.4556   -2.8163   23.6512 P   0  0  2  0  0  5  0  0  0  0  0  0
  -30.2918   -4.1408   22.6029 O   0  0  0  0  0  0  0  0  0  0  0  0
  -30.0882   -3.2440   25.0550 O   0  0  0  0  0  0  0  0  0  0  0  0
  -29.4024   -1.5638   23.1835 O   0  0  0  0  0  0  0  0  0  0  0  0
  -29.1578   -1.6735   21.4993 P   0  0  2  0  0  5  0  0  0  0  0  0
  -29.4613   -0.1491   20.8273 O   0  0  0  0  0  0  0  0  0  0  0  0
  -30.1943   -2.8060   20.7761 O   0  0  0  0  0  0  0  0  0  0  0  0
  -27.5118   -2.1045   21.1826 S   0  0  0  0  0  0  0  0  0  0  0  0
  -34.1521   -3.3304   21.9927 O   0  0  0  0  0  0  0  0  0  0  0  0
  -35.3155   -4.0141   21.5734 C   0  0  2  0  0  0  0  0  0  0  0  0
  -35.9323   -3.3183   20.4426 N   0  0  0  0  0  0  0  0  0  0  0  0
  -36.7999   -3.8354   19.5345 C   0  0  0  0  0  0  0  0  0  0  0  0
  -37.2719   -2.9125   18.6504 N   0  0  0  0  0  0  0  0  0  0  0  0
  -36.6650   -1.7807   19.0532 C   0  0  0  0  0  0  0  0  0  0  0  0
  -36.7760   -0.4946   18.5469 C   0  0  0  0  0  0  0  0  0  0  0  0
  -37.5837   -0.2184   17.4491 O   0  0  0  0  0  0  0  0  0  0  0  0
  -36.0659    0.4962   19.1655 N   0  0  0  0  0  0  0  0  0  0  0  0
  -35.2715    0.2331   20.2546 C   0  0  0  0  0  0  0  0  0  0  0  0
  -34.5471    1.2909   20.8776 N   0  0  0  0  0  0  0  0  0  0  0  0
  -35.1738   -1.0401   20.7458 N   0  0  0  0  0  0  0  0  0  0  0  0
  -35.8744   -2.0186   20.1231 C   0  0  0  0  0  0  0  0  0  0  0  0
  -36.2877   -4.1068   22.7522 C   0  0  1  0  0  0  0  0  0  0  0  0
  -37.0576   -5.2869   22.7545 O   0  0  0  0  0  0  0  0  0  0  0  0
  -35.0914   -5.8669   23.6081 H   0  0  0  0  0  0  0  0  0  0  0  0
  -35.8880   -3.4774   24.8044 H   0  0  0  0  0  0  0  0  0  0  0  0
  -34.5908   -2.0207   23.5100 H   0  0  0  0  0  0  0  0  0  0  0  0
  -32.5005   -4.2473   23.7847 H   0  0  0  0  0  0  0  0  0  0  0  0
  -33.0778   -3.2110   25.1711 H   0  0  0  0  0  0  0  0  0  0  0  0
  -30.6515   -3.8319   21.7333 H   0  0  0  0  0  0  0  0  0  0  0  0
  -30.3805   -0.2037   20.4621 H   0  0  0  0  0  0  0  0  0  0  0  0
  -30.6088   -2.3301   20.0128 H   0  0  0  0  0  0  0  0  0  0  0  0
  -35.0018   -5.0304   21.2468 H   0  0  0  0  0  0  0  0  0  0  0  0
  -37.0997   -4.8754   19.5191 H   0  0  0  0  0  0  0  0  0  0  0  0
  -37.6089    0.7099   17.0447 H   0  0  0  0  0  0  0  0  0  0  0  0
  -34.6829    2.2786   20.5678 H   0  0  0  0  0  0  0  0  0  0  0  0
  -33.8741    1.0869   21.6494 H   0  0  0  0  0  0  0  0  0  0  0  0
  -36.9803   -3.2349   22.7430 H   0  0  0  0  0  0  0  0  0  0  0  0
  -36.7839   -5.8446   23.5282 H   0  0  0  0  0  0  0  0  0  0  0  0
  2  1  1  0
  2  3  1  0
  3  4  1  0
  4  5  1  0
  6  5  1  1
  6  7  1  0
  6  8  2  0
  6  9  1  0
 10  9  1  1
 10 11  1  0
 10 12  1  0
 10 13  2  0
  3 14  1  0
 14 15  1  0
 15 16  1  0
 16 17  1  0
 17 18  2  0
 18 19  1  0
 19 20  2  0
 20 21  1  0
 20 22  1  0
 22 23  2  0
 23 24  1  0
 23 25  1  0
 25 26  2  0
 16 26  1  0
 19 26  1  0
  2 27  1  0
 15 27  1  0
 27 28  1  0
  1 29  1  0
  2 30  1  1
  3 31  1  6
  4 32  1  1
  4 33  1  0
  7 34  1  0
 11 35  1  0
 12 36  1  0
 15 37  1  6
 17 38  1  0
 21 39  1  0
 24 40  1  0
 24 41  1  0
 27 42  1  6
 28 43  1  0
M  END
