7ZCC_OGA_D_402
     RDKit          3D

 15 14  0  0  0  0  0  0  0  0999 V2000
    4.2490   -1.8605    0.8041 C   0  0  0  0  0  0  0  0  0  0  0  0
    5.0578   -2.3010    1.9504 C   0  0  0  0  0  0  0  0  0  0  0  0
    6.2190   -4.4751    1.4013 C   0  0  0  0  0  0  0  0  0  0  0  0
    7.6240   -4.2269    1.8509 C   0  0  0  0  0  0  0  0  0  0  0  0
    4.7558   -1.1380   -0.0952 O   0  0  0  0  0  0  0  0  0  0  0  0
    2.9145   -2.2440    0.7111 O   0  0  0  0  0  0  0  0  0  0  0  0
    5.5624   -1.4350    2.7154 O   0  0  0  0  0  0  0  0  0  0  0  0
    8.3595   -5.2582    2.4261 O   0  0  0  0  0  0  0  0  0  0  0  0
    5.2754   -3.6970    2.2027 N   0  0  0  0  0  0  0  0  0  0  0  0
    8.1548   -3.0987    1.6695 O   0  0  0  0  0  0  0  0  0  0  0  0
    5.9843   -5.5575    1.4973 H   0  0  0  0  0  0  0  0  0  0  0  0
    6.1228   -4.1877    0.3323 H   0  0  0  0  0  0  0  0  0  0  0  0
    2.3425   -1.9498   -0.0717 H   0  0  0  0  0  0  0  0  0  0  0  0
    9.3177   -5.1114    2.7200 H   0  0  0  0  0  0  0  0  0  0  0  0
    4.7464   -4.1623    2.9756 H   0  0  0  0  0  0  0  0  0  0  0  0
  1  2  1  0
  3  4  1  0
  1  5  2  0
  1  6  1  0
  2  7  2  0
  4  8  1  0
  2  9  1  0
  3  9  1  0
  4 10  2  0
  3 11  1  0
  3 12  1  0
  6 13  1  0
  8 14  1  0
  9 15  1  0
M  END
