7ZZW_KKW_B_610
     RDKit          3D

 52 56  0  0  0  0  0  0  0  0999 V2000
    3.2733    0.5972   -4.8291 C   0  0  0  0  0  0  0  0  0  0  0  0
    2.5426    1.6495   -4.2763 C   0  0  0  0  0  0  0  0  0  0  0  0
    5.5564    2.6215    0.0490 C   0  0  0  0  0  0  0  0  0  0  0  0
    3.1819    2.8220   -3.9016 C   0  0  0  0  0  0  0  0  0  0  0  0
    1.1644    1.6510   -4.0265 C   0  0  0  0  0  0  0  0  0  0  0  0
    0.7258    2.8353   -3.4394 C   0  0  0  0  0  0  0  0  0  0  0  0
    5.8922    3.8626    0.8951 C   0  0  1  0  0  0  0  0  0  0  0  0
    3.3847    2.0773   -1.1581 C   0  0  0  0  0  0  0  0  0  0  0  0
    3.5154    1.2948   -3.4611 C   0  0  0  0  0  0  0  0  0  0  0  0
    2.1225    1.3576   -3.5637 C   0  0  0  0  0  0  0  0  0  0  0  0
    4.0463    2.4555    0.1559 C   0  0  2  0  0  0  0  0  0  0  0  0
    1.3596    1.7800   -2.4743 C   0  0  0  0  0  0  0  0  0  0  0  0
    1.9851    2.1371   -1.2773 C   0  0  0  0  0  0  0  0  0  0  0  0
    4.7367    5.4195   -1.6598 C   0  0  0  0  0  0  0  0  0  0  0  0
    4.4875    5.3215   -3.1680 C   0  0  0  0  0  0  0  0  0  0  0  0
    6.7123    4.1783   -3.5249 C   0  0  0  0  0  0  0  0  0  0  0  0
    7.1464    5.1533   -2.4181 C   0  0  0  0  0  0  0  0  0  0  0  0
    4.5658    2.9744   -4.0646 C   0  0  0  0  0  0  0  0  0  0  0  0
    4.6594    0.7616   -4.9772 C   0  0  0  0  0  0  0  0  0  0  0  0
    3.5552    3.7815    0.7150 C   0  0  0  0  0  0  0  0  0  0  0  0
    6.5091    4.9651    0.0543 C   0  0  0  0  0  0  0  0  0  0  0  0
    4.1457    1.6547   -2.2665 C   0  0  0  0  0  0  0  0  0  0  0  0
    4.6455    4.3334    1.5141 N   0  0  0  0  0  0  0  0  0  0  0  0
    6.1496    5.1631   -1.3312 N   0  0  0  0  0  0  0  0  0  0  0  0
    5.2513    4.1916   -3.7115 N   0  0  0  0  0  0  0  0  0  0  0  0
    5.2644    1.9278   -4.5968 N   0  0  0  0  0  0  0  0  0  0  0  0
    7.3385    5.7523    0.5896 O   0  0  0  0  0  0  0  0  0  0  0  0
    2.0485    3.8702   -3.2361 S   0  0  0  0  0  0  0  0  0  0  0  0
    4.4744    0.7593   -4.8270 Cl  0  0  0  0  0  0  0  0  0  0  0  0
    2.7907   -0.3274   -5.1268 H   0  0  0  0  0  0  0  0  0  0  0  0
    6.0712    1.7215    0.4585 H   0  0  0  0  0  0  0  0  0  0  0  0
    5.8813    2.7391   -1.0094 H   0  0  0  0  0  0  0  0  0  0  0  0
    0.5072    0.8195   -4.2562 H   0  0  0  0  0  0  0  0  0  0  0  0
   -0.2955    3.0524   -3.1554 H   0  0  0  0  0  0  0  0  0  0  0  0
    6.6170    3.5916    1.6961 H   0  0  0  0  0  0  0  0  0  0  0  0
    1.6307    1.0802   -4.4861 H   0  0  0  0  0  0  0  0  0  0  0  0
    3.8453    1.6753    0.9262 H   0  0  0  0  0  0  0  0  0  0  0  0
    0.2818    1.8277   -2.5550 H   0  0  0  0  0  0  0  0  0  0  0  0
    1.3746    2.4580   -0.4431 H   0  0  0  0  0  0  0  0  0  0  0  0
    4.1008    4.6599   -1.1528 H   0  0  0  0  0  0  0  0  0  0  0  0
    4.4427    6.4279   -1.2953 H   0  0  0  0  0  0  0  0  0  0  0  0
    4.8267    6.2587   -3.6610 H   0  0  0  0  0  0  0  0  0  0  0  0
    3.3994    5.2157   -3.3736 H   0  0  0  0  0  0  0  0  0  0  0  0
    7.0443    3.1546   -3.2386 H   0  0  0  0  0  0  0  0  0  0  0  0
    7.2151    4.4536   -4.4764 H   0  0  0  0  0  0  0  0  0  0  0  0
    8.1603    4.8771   -2.0649 H   0  0  0  0  0  0  0  0  0  0  0  0
    7.2222    6.1801   -2.8414 H   0  0  0  0  0  0  0  0  0  0  0  0
    5.2551   -0.0387   -5.3922 H   0  0  0  0  0  0  0  0  0  0  0  0
    2.6424    3.6361    1.3359 H   0  0  0  0  0  0  0  0  0  0  0  0
    3.3103    4.5036   -0.0934 H   0  0  0  0  0  0  0  0  0  0  0  0
    5.2256    1.5976   -2.2010 H   0  0  0  0  0  0  0  0  0  0  0  0
    4.5775    3.9146    2.4729 H   0  0  0  0  0  0  0  0  0  0  0  0
  1  2  4  0
  2  4  4  0
  2  5  4  0
  5  6  4  0
  3  7  1  0
  9 10  4  0
 11  8  1  0
  3 11  1  0
 10 12  4  0
 12 13  4  0
  8 13  4  0
 14 15  1  0
 16 17  1  0
  4 18  4  0
  1 19  4  0
 11 20  1  0
  7 21  1  0
  9 22  4  0
  8 22  4  0
 20 23  1  0
  7 23  1  0
 17 24  1  0
 14 24  1  0
 21 24  1  0
 16 25  1  0
 15 25  1  0
 18 25  1  0
 18 26  4  0
 19 26  4  0
 21 27  2  0
  6 28  4  0
  4 28  4  0
  9 29  1  0
  1 30  1  0
  3 31  1  0
  3 32  1  0
  5 33  1  0
  6 34  1  0
  7 35  1  6
 10 36  1  0
 11 37  1  6
 12 38  1  0
 13 39  1  0
 14 40  1  0
 14 41  1  0
 15 42  1  0
 15 43  1  0
 16 44  1  0
 16 45  1  0
 17 46  1  0
 17 47  1  0
 19 48  1  0
 20 49  1  0
 20 50  1  0
 22 51  1  0
 23 52  1  0
M  END
