7BKA_4JC_E_201
     RDKit          3D

 23 23  0  0  0  0  0  0  0  0999 V2000
   -0.3507    0.3970    3.8567 O   0  0  0  0  0  0  0  0  0  0  0  0
   -0.1379    1.5506    2.9170 S   0  0  2  0  0  6  0  0  0  0  0  0
    0.8445    2.5028    3.5393 O   0  0  0  0  0  0  0  0  0  0  0  0
   -1.6403    2.3635    2.6529 N   0  0  0  0  0  0  0  0  0  0  0  0
    0.4934    0.9611    1.3824 C   0  0  0  0  0  0  0  0  0  0  0  0
    1.8634    0.7068    1.2352 C   0  0  0  0  0  0  0  0  0  0  0  0
    2.3678    0.2533    0.0127 C   0  0  0  0  0  0  0  0  0  0  0  0
   -0.3662    0.7747    0.2918 C   0  0  0  0  0  0  0  0  0  0  0  0
    0.1366    0.3212   -0.9313 C   0  0  0  0  0  0  0  0  0  0  0  0
    1.5056    0.0449   -1.0756 C   0  0  0  0  0  0  0  0  0  0  0  0
    2.0528   -0.4103   -2.4017 C   0  0  0  0  0  0  0  0  0  0  0  0
    2.3153   -1.9125   -2.3907 C   0  0  0  0  0  0  0  0  0  0  0  0
   -1.4567    3.1277    1.9647 H   0  0  0  0  0  0  0  0  0  0  0  0
   -2.2772    1.6818    2.1827 H   0  0  0  0  0  0  0  0  0  0  0  0
    2.5423    0.8649    2.0635 H   0  0  0  0  0  0  0  0  0  0  0  0
    3.4301    0.0678   -0.0868 H   0  0  0  0  0  0  0  0  0  0  0  0
   -1.4239    0.9856    0.3854 H   0  0  0  0  0  0  0  0  0  0  0  0
   -0.5398    0.1887   -1.7666 H   0  0  0  0  0  0  0  0  0  0  0  0
    3.0000    0.1258   -2.6289 H   0  0  0  0  0  0  0  0  0  0  0  0
    1.3337   -0.1696   -3.2150 H   0  0  0  0  0  0  0  0  0  0  0  0
    3.0581   -2.1683   -1.6051 H   0  0  0  0  0  0  0  0  0  0  0  0
    2.7178   -2.2270   -3.3766 H   0  0  0  0  0  0  0  0  0  0  0  0
    1.3721   -2.4672   -2.1981 H   0  0  0  0  0  0  0  0  0  0  0  0
  1  2  2  0
  2  3  2  0
  2  4  1  1
  2  5  1  0
  5  6  4  0
  6  7  4  0
  5  8  4  0
  8  9  4  0
  7 10  4  0
  9 10  4  0
 10 11  1  0
 11 12  1  0
  4 13  1  0
  4 14  1  0
  6 15  1  0
  7 16  1  0
  8 17  1  0
  9 18  1  0
 11 19  1  0
 11 20  1  0
 12 21  1  0
 12 22  1  0
 12 23  1  0
M  END
