6YDY_K73_A_302
     RDKit          3D

 56 58  0  0  0  0  0  0  0  0999 V2000
    4.5384   -0.0863   -0.1010 N   0  0  0  0  0  0  0  0  0  0  0  0
    4.4178   -1.0707    0.9717 C   0  0  0  0  0  0  0  0  0  0  0  0
   -2.9255   -2.7263   -0.6062 O   0  0  0  0  0  0  0  0  0  0  0  0
    2.9711   -1.3406    1.2956 C   0  0  0  0  0  0  0  0  0  0  0  0
    0.9421   -0.4539    0.0447 C   0  0  0  0  0  0  0  0  0  0  0  0
    0.9924   -2.7892   -0.9030 C   0  0  0  0  0  0  0  0  0  0  0  0
    1.2936   -3.7897    0.1837 C   0  0  2  0  0  0  0  0  0  0  0  0
    1.6059   -3.0988    1.5274 C   0  0  0  0  0  0  0  0  0  0  0  0
    2.8112   -2.2004    1.4295 C   0  0  0  0  0  0  0  0  0  0  0  0
    2.8416   -0.9713    2.1083 C   0  0  0  0  0  0  0  0  0  0  0  0
    3.9523   -0.1315    1.9908 C   0  0  0  0  0  0  0  0  0  0  0  0
    5.0458   -0.5196    1.2121 C   0  0  0  0  0  0  0  0  0  0  0  0
    5.0338   -1.7518    0.5552 C   0  0  0  0  0  0  0  0  0  0  0  0
    3.9202   -2.5897    0.6597 C   0  0  0  0  0  0  0  0  0  0  0  0
    1.9897   -1.2267    0.2989 C   0  0  0  0  0  0  0  0  0  0  0  0
    1.2715   -2.0957    2.8584 C   0  0  0  0  0  0  0  0  0  0  0  0
    2.6043   -1.7838    2.5753 C   0  0  0  0  0  0  0  0  0  0  0  0
    0.6568   -1.5372    0.5826 C   0  0  0  0  0  0  0  0  0  0  0  0
    0.2885   -1.9725    1.8650 C   0  0  0  0  0  0  0  0  0  0  0  0
   -1.1377   -2.3356    2.1687 C   0  0  0  0  0  0  0  0  0  0  0  0
   -2.0853   -1.9078   -0.1425 C   0  0  0  0  0  0  0  0  0  0  0  0
   -1.0612   -1.2729   -1.0525 C   0  0  1  0  0  0  0  0  0  0  0  0
   -1.1495    0.2521   -0.9722 C   0  0  0  0  0  0  0  0  0  0  0  0
   -0.0893    0.6682    0.0459 C   0  0  0  0  0  0  0  0  0  0  0  0
   -2.0498   -1.6364    1.2654 N   0  0  0  0  0  0  0  0  0  0  0  0
    0.2911   -1.5773   -0.6039 N   0  0  0  0  0  0  0  0  0  0  0  0
    2.4139   -4.6321   -0.2395 N   0  0  0  0  0  0  0  0  0  0  0  0
    1.2649   -3.0648   -2.1024 O   0  0  0  0  0  0  0  0  0  0  0  0
    4.0582    0.7946    0.1948 H   0  0  0  0  0  0  0  0  0  0  0  0
    4.0421   -0.4478   -0.9479 H   0  0  0  0  0  0  0  0  0  0  0  0
    4.9499   -0.6968    1.8731 H   0  0  0  0  0  0  0  0  0  0  0  0
    4.9230   -2.0118    0.6632 H   0  0  0  0  0  0  0  0  0  0  0  0
    1.8387   -0.1530   -0.5404 H   0  0  0  0  0  0  0  0  0  0  0  0
    1.2386   -0.7239    1.0812 H   0  0  0  0  0  0  0  0  0  0  0  0
    0.4107   -4.4514    0.3214 H   0  0  0  0  0  0  0  0  0  0  0  0
    1.7506   -3.8609    2.3251 H   0  0  0  0  0  0  0  0  0  0  0  0
    0.7327   -2.4822    1.8342 H   0  0  0  0  0  0  0  0  0  0  0  0
    2.0029   -0.6582    2.7175 H   0  0  0  0  0  0  0  0  0  0  0  0
    3.9606    0.8224    2.4986 H   0  0  0  0  0  0  0  0  0  0  0  0
    5.9015    0.1345    1.1135 H   0  0  0  0  0  0  0  0  0  0  0  0
    5.8838   -2.0538   -0.0428 H   0  0  0  0  0  0  0  0  0  0  0  0
    3.9188   -3.5388    0.1383 H   0  0  0  0  0  0  0  0  0  0  0  0
    2.2585   -0.9068   -0.7001 H   0  0  0  0  0  0  0  0  0  0  0  0
    1.0076   -2.4456    3.8488 H   0  0  0  0  0  0  0  0  0  0  0  0
    3.3523   -1.9015    3.3493 H   0  0  0  0  0  0  0  0  0  0  0  0
   -0.0857   -1.4407   -0.1993 H   0  0  0  0  0  0  0  0  0  0  0  0
   -1.2712   -3.4326    2.0436 H   0  0  0  0  0  0  0  0  0  0  0  0
   -1.3931   -2.1047    3.2265 H   0  0  0  0  0  0  0  0  0  0  0  0
   -1.2237   -1.6108   -2.0979 H   0  0  0  0  0  0  0  0  0  0  0  0
   -0.8875    0.6838   -1.9634 H   0  0  0  0  0  0  0  0  0  0  0  0
   -2.1577    0.6231   -0.6829 H   0  0  0  0  0  0  0  0  0  0  0  0
   -0.5550    0.7458    1.0530 H   0  0  0  0  0  0  0  0  0  0  0  0
    0.3695    1.6441   -0.2232 H   0  0  0  0  0  0  0  0  0  0  0  0
   -2.5608   -0.8004    1.6283 H   0  0  0  0  0  0  0  0  0  0  0  0
    2.5351   -5.4039    0.4566 H   0  0  0  0  0  0  0  0  0  0  0  0
    3.2960   -4.0687   -0.2354 H   0  0  0  0  0  0  0  0  0  0  0  0
  1  2  1  0
  2  4  1  0
  6  7  1  0
  7  8  1  0
  8  9  1  0
  9 10  4  0
 10 11  4  0
 11 12  4  0
 12 13  4  0
  9 14  4  0
 13 14  4  0
  4 15  4  0
 16 17  4  0
  4 17  4  0
 15 18  4  0
 18 19  4  0
 16 19  4  0
 19 20  1  0
  3 21  2  0
 22 21  1  0
 22 23  1  0
 23 24  1  0
  5 24  1  0
 20 25  1  0
 21 25  1  0
  5 26  1  0
 22 26  1  0
  6 26  1  0
  7 27  1  0
  6 28  2  0
  1 29  1  0
  1 30  1  0
  2 31  1  0
  2 32  1  0
  5 33  1  0
  5 34  1  0
  7 35  1  6
  8 36  1  0
  8 37  1  0
 10 38  1  0
 11 39  1  0
 12 40  1  0
 13 41  1  0
 14 42  1  0
 15 43  1  0
 16 44  1  0
 17 45  1  0
 18 46  1  0
 20 47  1  0
 20 48  1  0
 22 49  1  1
 23 50  1  0
 23 51  1  0
 24 52  1  0
 24 53  1  0
 25 54  1  0
 27 55  1  0
 27 56  1  0
M  END
