8AP0_PRP_AAA_401
     RDKit          3D

 22 22  0  0  0  0  0  0  0  0999 V2000
    9.7876   21.7757    8.3884 C   0  0  1  0  0  0  0  0  0  0  0  0
    8.3128   21.8487    8.7953 C   0  0  1  0  0  0  0  0  0  0  0  0
    7.7179   21.0576    7.6206 C   0  0  1  0  0  0  0  0  0  0  0  0
    8.7701   19.9770    7.5257 C   0  0  1  0  0  0  0  0  0  0  0  0
    8.7208   19.2116    6.2444 C   0  0  0  0  0  0  0  0  0  0  0  0
   10.6121   22.0760    9.4672 O   0  0  0  0  0  0  0  0  0  0  0  0
    8.1731   21.0836    9.9458 O   0  0  0  0  0  0  0  0  0  0  0  0
    6.4644   20.5671    7.8904 O   0  0  0  0  0  0  0  0  0  0  0  0
    9.9755   20.5345    7.8447 O   0  0  0  0  0  0  0  0  0  0  0  0
    8.5319   19.9739    5.1176 O   0  0  0  0  0  0  0  0  0  0  0  0
    9.6434   19.4820    3.9174 P   0  0  1  0  0  5  0  0  0  0  0  0
    9.6252   17.9993    3.7255 O   0  0  0  0  0  0  0  0  0  0  0  0
    9.1943   20.2836    2.4998 O   0  0  0  0  0  0  0  0  0  0  0  0
   11.2163   19.9293    4.3543 O   0  0  0  0  0  0  0  0  0  0  0  0
   11.4554   23.4933    9.1036 P   0  0  1  0  0  5  0  0  0  0  0  0
   12.4800   23.8519   10.1502 O   0  0  0  0  0  0  0  0  0  0  0  0
   12.2116   23.2092    7.5964 O   0  0  0  0  0  0  0  0  0  0  0  0
   10.4386   24.8259    8.9002 O   0  0  0  0  0  0  0  0  0  0  0  0
   11.3055   26.0152    8.0454 P   0  0  1  0  0  5  0  0  0  0  0  0
   10.4165   26.6900    7.0144 O   0  0  0  0  0  0  0  0  0  0  0  0
   11.8823   27.2152    9.0835 O   0  0  0  0  0  0  0  0  0  0  0  0
   12.6375   25.3389    7.2549 O   0  0  0  0  0  0  0  0  0  0  0  0
  1  2  1  0
  2  3  1  0
  3  4  1  0
  4  5  1  0
  1  6  1  1
  2  7  1  1
  3  8  1  1
  1  9  1  0
  4  9  1  6
  5 10  1  6
 10 11  1  0
 11 12  2  0
 11 13  1  6
 11 14  1  0
 15  6  1  0
 15 16  2  0
 15 17  1  6
 15 18  1  0
 18 19  1  0
 19 20  2  0
 19 21  1  1
 19 22  1  0
M  END
$$$$
