
     RDKit          3D

 17 18  0  0  0  0  0  0  0  0999 V2000
   32.4658   16.6431   31.1175 C   0  0  0  0  0  0  0  0  0  0  0  0
   31.9505   15.9011   32.1736 C   0  0  0  0  0  0  0  0  0  0  0  0
   32.8310   15.2400   33.0208 C   0  0  0  0  0  0  0  0  0  0  0  0
   34.2077   15.3194   32.8258 C   0  0  0  0  0  0  0  0  0  0  0  0
   34.7279   16.0818   31.7716 C   0  0  0  0  0  0  0  0  0  0  0  0
   33.8410   16.7368   30.9049 C   0  0  0  0  0  0  0  0  0  0  0  0
   36.1845   16.1203   31.5770 C   0  0  0  0  0  0  0  0  0  0  0  0
   36.7868   16.7829   30.5761 C   0  0  0  0  0  0  0  0  0  0  0  0
   38.2434   16.8235   30.3835 C   0  0  0  0  0  0  0  0  0  0  0  0
   38.7730   17.6732   29.4030 C   0  0  0  0  0  0  0  0  0  0  0  0
   40.1536   17.7601   29.2089 C   0  0  0  0  0  0  0  0  0  0  0  0
   41.0090   17.0070   30.0026 C   0  0  0  0  0  0  0  0  0  0  0  0
   40.5074   16.1695   30.9925 C   0  0  0  0  0  0  0  0  0  0  0  0
   39.1249   16.0833   31.1847 C   0  0  0  0  0  0  0  0  0  0  0  0
   42.3489   17.1226   29.7805 O   0  0  0  0  0  0  0  0  0  0  0  0
   32.3804   14.4910   34.0685 O   0  0  0  0  0  0  0  0  0  0  0  0
   31.5766   17.2710   30.2941 O   0  0  0  0  0  0  0  0  0  0  0  0
  1  2  4  0
  2  3  4  0
  3  4  4  0
  4  5  4  0
  1  6  4  0
  5  6  4  0
  5  7  1  0
  7  8  2  0
  8  9  1  0
  9 10  4  0
 10 11  4  0
 11 12  4  0
 12 13  4  0
  9 14  4  0
 13 14  4  0
 12 15  1  0
  3 16  1  0
  1 17  1  0
M  END
