1P2Y_NCT_A_440
     RDKit          3D

 12 13  0  0  0  0  0  0  0  0999 V2000
   14.7757   12.0851   38.3289 N   0  0  0  0  0  0  0  0  0  0  0  0
   13.7872   12.5662   39.0831 C   0  0  0  0  0  0  0  0  0  0  0  0
   13.1811   11.8393   40.0847 C   0  0  0  0  0  0  0  0  0  0  0  0
   13.6348   10.5415   40.2939 C   0  0  0  0  0  0  0  0  0  0  0  0
   14.6425   10.0181   39.5043 C   0  0  0  0  0  0  0  0  0  0  0  0
   15.1968   10.8327   38.5318 C   0  0  0  0  0  0  0  0  0  0  0  0
   11.2597   11.4935   41.6374 N   0  0  0  0  0  0  0  0  0  0  0  0
   12.0924   12.4515   40.9303 C   0  0  1  0  0  0  0  0  0  0  0  0
   12.6852   13.2919   42.0784 C   0  0  0  0  0  0  0  0  0  0  0  0
   11.5911   13.3014   43.1550 C   0  0  0  0  0  0  0  0  0  0  0  0
   10.5758   12.2270   42.6905 C   0  0  0  0  0  0  0  0  0  0  0  0
   10.3854   10.6915   40.8068 C   0  0  0  0  0  0  0  0  0  0  0  0
  1  2  2  0
  2  3  1  0
  3  4  2  0
  4  5  1  0
  1  6  1  0
  5  6  2  0
  8  3  1  1
  7  8  1  0
  8  9  1  0
  9 10  1  0
  7 11  1  0
 10 11  1  0
  7 12  1  0
M  END
