1P2Y_NCT_A_440
     RDKit          3D

 12 13  0  0  0  0  0  0  0  0999 V2000
   14.0523   12.4240   37.8858 N   0  0  0  0  0  0  0  0  0  0  0  0
   13.1181   12.6705   38.8045 C   0  0  0  0  0  0  0  0  0  0  0  0
   12.9872   11.9354   39.9627 C   0  0  0  0  0  0  0  0  0  0  0  0
   13.8794   10.8863   40.1555 C   0  0  0  0  0  0  0  0  0  0  0  0
   14.8390   10.6011   39.2012 C   0  0  0  0  0  0  0  0  0  0  0  0
   14.8980   11.4065   38.0766 C   0  0  0  0  0  0  0  0  0  0  0  0
   11.6160   11.2228   41.9208 N   0  0  0  0  0  0  0  0  0  0  0  0
   11.9335   12.2864   40.9833 C   0  0  1  0  0  0  0  0  0  0  0  0
   12.4133   13.4194   41.9118 C   0  0  0  0  0  0  0  0  0  0  0  0
   11.5991   13.2340   43.1998 C   0  0  0  0  0  0  0  0  0  0  0  0
   10.9343   11.8429   43.0457 C   0  0  0  0  0  0  0  0  0  0  0  0
   10.9224   10.0815   41.3606 C   0  0  0  0  0  0  0  0  0  0  0  0
  1  2  2  0
  2  3  1  0
  3  4  2  0
  4  5  1  0
  1  6  1  0
  5  6  2  0
  8  3  1  6
  7  8  1  0
  8  9  1  0
  9 10  1  0
  7 11  1  0
 10 11  1  0
  7 12  1  0
M  END
