
     RDKit          3D

 41 44  0  0  0  0  0  0  0  0999 V2000
    3.7849   31.6558   10.9957 C   0  0  0  0  0  0  0  0  0  0  0  0
    2.9984   32.4799    9.9433 C   0  0  0  0  0  0  0  0  0  0  0  0
    2.7117   31.6952    8.6616 C   0  0  0  0  0  0  0  0  0  0  0  0
    3.3871   30.1572   10.9455 C   0  0  0  0  0  0  0  0  0  0  0  0
    1.9976   29.9613   10.3385 C   0  0  0  0  0  0  0  0  0  0  0  0
    3.4814   32.2274   12.3939 C   0  0  0  0  0  0  0  0  0  0  0  0
    5.2980   31.7832   10.7432 C   0  0  0  0  0  0  0  0  0  0  0  0
    3.7704   29.6386    5.5481 C   0  0  0  0  0  0  0  0  0  0  0  0
    3.1543   28.6399    4.5626 C   0  0  0  0  0  0  0  0  0  0  0  0
   -0.5623   31.9320    8.9699 C   0  0  0  0  0  0  0  0  0  0  0  0
    2.7901   27.4734    8.4401 C   0  0  0  0  0  0  0  0  0  0  0  0
   -3.3853   36.1729   10.5018 C   0  0  0  0  0  0  0  0  0  0  0  0
   -0.5862   33.2178    8.4088 C   0  0  0  0  0  0  0  0  0  0  0  0
   -1.9551   36.4163   10.9983 C   0  0  0  0  0  0  0  0  0  0  0  0
   -0.2938   30.7504    8.1288 C   0  0  0  0  0  0  0  0  0  0  0  0
   -1.2930   30.2807    7.2590 C   0  0  0  0  0  0  0  0  0  0  0  0
   -1.1176   29.2360    6.4182 N   0  0  0  0  0  0  0  0  0  0  0  0
    0.0774   28.6023    6.3985 C   0  0  0  0  0  0  0  0  0  0  0  0
    1.1454   28.9733    7.2308 C   0  0  0  0  0  0  0  0  0  0  0  0
    0.9557   30.0686    8.1208 C   0  0  0  0  0  0  0  0  0  0  0  0
    2.0313   30.4279    8.9520 N   0  0  0  0  0  0  0  0  0  0  0  0
    2.4977   28.2692    7.1525 C   0  0  0  0  0  0  0  0  0  0  0  0
    0.1434   27.4584    5.4256 C   0  0  0  0  0  0  0  0  0  0  0  0
   -2.6529   30.9212    7.1880 C   0  0  0  0  0  0  0  0  0  0  0  0
    1.6970   26.9325    9.0254 O   0  0  0  0  0  0  0  0  0  0  0  0
    3.5150   29.2467    6.9016 O   0  0  0  0  0  0  0  0  0  0  0  0
    3.8854   27.2638    8.9433 O   0  0  0  0  0  0  0  0  0  0  0  0
    3.0531   30.9873    5.3870 C   0  0  0  0  0  0  0  0  0  0  0  0
    5.2638   29.8426    5.2667 C   0  0  0  0  0  0  0  0  0  0  0  0
   -0.8447   34.3471    9.1945 C   0  0  0  0  0  0  0  0  0  0  0  0
   -1.0891   34.2092   10.5586 C   0  0  0  0  0  0  0  0  0  0  0  0
   -1.1049   32.9304   11.1196 C   0  0  0  0  0  0  0  0  0  0  0  0
   -0.8547   31.8019   10.3340 C   0  0  0  0  0  0  0  0  0  0  0  0
   -1.3171   35.2187   11.4493 O   0  0  0  0  0  0  0  0  0  0  0  0
   -3.7638   37.0570    9.3351 C   0  0  0  0  0  0  0  0  0  0  0  0
   -4.8882   37.8930    9.4099 C   0  0  0  0  0  0  0  0  0  0  0  0
   -5.2302   38.7101    8.3314 C   0  0  0  0  0  0  0  0  0  0  0  0
   -4.4478   38.6938    7.1825 C   0  0  0  0  0  0  0  0  0  0  0  0
   -3.3273   37.8775    7.0910 C   0  0  0  0  0  0  0  0  0  0  0  0
   -2.9836   37.0600    8.1680 C   0  0  0  0  0  0  0  0  0  0  0  0
   -4.7778   39.4791    6.1488 F   0  0  0  0  0  0  0  0  0  0  0  0
  1  2  1  0
  2  3  1  0
  1  4  1  0
  4  5  1  0
  1  6  1  0
  1  7  1  0
  8  9  1  0
 10 13  4  0
 12 14  1  0
 10 15  1  0
 15 16  4  0
 16 17  4  0
 17 18  4  0
 18 19  4  0
 15 20  4  0
 19 20  4  0
  5 21  1  0
 20 21  1  0
  3 21  1  0
 19 22  1  0
 11 22  1  0
 18 23  1  0
 16 24  1  0
 11 25  1  0
  8 26  1  0
 22 26  1  0
 11 27  2  0
  8 28  1  0
  8 29  1  0
 13 30  4  0
 30 31  4  0
 31 32  4  0
 32 33  4  0
 10 33  4  0
 31 34  1  0
 14 34  1  0
 12 35  1  0
 35 36  4  0
 36 37  4  0
 37 38  4  0
 38 39  4  0
 39 40  4  0
 35 40  4  0
 38 41  1  0
M  END
