
     RDKit          3D

 26 28  0  0  0  0  0  0  0  0999 V2000
  -11.8431   17.3368  -32.6663 C   0  0  1  0  0  0  0  0  0  0  0  0
  -12.0847   18.1131  -33.9494 C   0  0  2  0  0  0  0  0  0  0  0  0
  -13.1269   19.1441  -33.4958 C   0  0  2  0  0  0  0  0  0  0  0  0
  -12.4974   20.9228  -31.8024 C   0  0  0  0  0  0  0  0  0  0  0  0
  -11.5026   22.3257  -33.0705 C   0  0  0  0  0  0  0  0  0  0  0  0
  -11.9218   21.2982  -33.8990 C   0  0  0  0  0  0  0  0  0  0  0  0
  -13.6165   19.6277  -27.8185 C   0  0  0  0  0  0  0  0  0  0  0  0
  -12.7379   20.3622  -27.4565 C   0  0  0  0  0  0  0  0  0  0  0  0
  -13.3361   16.9531  -30.6092 C   0  0  0  0  0  0  0  0  0  0  0  0
  -14.6841   18.7242  -28.2565 C   0  0  0  0  0  0  0  0  0  0  0  0
  -11.0931   22.2785  -35.7041 C   0  0  0  0  0  0  0  0  0  0  0  0
  -10.8179   23.3884  -33.6833 C   0  0  0  0  0  0  0  0  0  0  0  0
  -13.2591   17.2693  -32.1013 C   0  0  1  0  0  0  0  0  0  0  0  0
  -12.5405   20.4029  -33.0693 N   0  0  0  0  0  0  0  0  0  0  0  0
  -11.8694   22.0805  -31.7630 N   0  0  0  0  0  0  0  0  0  0  0  0
  -11.7468   21.2000  -35.2260 N   0  0  0  0  0  0  0  0  0  0  0  0
  -10.6330   23.3507  -35.0228 N   0  0  0  0  0  0  0  0  0  0  0  0
  -10.3367   24.4885  -32.9841 N   0  0  0  0  0  0  0  0  0  0  0  0
  -11.2814   16.0582  -32.9321 O   0  0  0  0  0  0  0  0  0  0  0  0
  -13.8443   18.5604  -32.3738 O   0  0  0  0  0  0  0  0  0  0  0  0
  -12.6317   17.2256  -34.9404 O   0  0  0  0  0  0  0  0  0  0  0  0
  -14.6875   16.7584  -30.2103 O   0  0  0  0  0  0  0  0  0  0  0  0
  -16.5263   16.3632  -28.5786 O   0  0  0  0  0  0  0  0  0  0  0  0
  -14.3818   17.4192  -27.8007 O   0  0  0  0  0  0  0  0  0  0  0  0
  -14.4203   14.8648  -28.4161 O   0  0  0  0  0  0  0  0  0  0  0  0
  -14.9405   16.2270  -28.7181 P   0  0  2  0  0  5  0  0  0  0  0  0
  1  2  1  0
  2  3  1  0
  5  6  4  0
  7  8  3  0
  7 10  1  0
  5 12  4  0
 13  9  1  1
  1 13  1  0
  4 14  4  0
  6 14  4  0
  3 14  1  1
  4 15  4  0
  5 15  4  0
  6 16  4  0
 11 16  4  0
 12 17  4  0
 11 17  4  0
 12 18  1  0
  1 19  1  6
  3 20  1  0
 13 20  1  0
  2 21  1  6
  9 22  1  0
 10 24  1  0
 25 26  2  0
 26 24  1  0
 22 26  1  0
 26 23  1  6
M  END
