7ZDY_6MJ_Y_903
     RDKit          3D

 23 23  0  0  0  0  0  0  0  0999 V2000
   27.2675    5.5456   63.9235 C   0  0  1  0  0  0  0  0  0  0  0  0
   26.2612    5.2950   62.9661 O   0  0  0  0  0  0  0  0  0  0  0  0
   26.3415    3.9583   62.5044 C   0  0  1  0  0  0  0  0  0  0  0  0
   25.0237    3.2243   62.9058 C   0  0  1  0  0  0  0  0  0  0  0  0
   24.0936    3.0338   61.6848 C   0  0  2  0  0  0  0  0  0  0  0  0
   24.8487    2.3717   60.5032 C   0  0  1  0  0  0  0  0  0  0  0  0
   26.3563    2.6904   60.5458 C   0  0  1  0  0  0  0  0  0  0  0  0
   26.5597    3.9742   61.0970 O   0  0  0  0  0  0  0  0  0  0  0  0
   24.6342    0.9822   60.4682 O   0  0  0  0  0  0  0  0  0  0  0  0
   23.6019    4.2850   61.2731 O   0  0  0  0  0  0  0  0  0  0  0  0
   25.3380    1.9752   63.4694 O   0  0  0  0  0  0  0  0  0  0  0  0
   26.8109    5.5077   64.9337 H   0  0  0  0  0  0  0  0  0  0  0  0
   28.0580    4.7642   63.8835 H   0  0  0  0  0  0  0  0  0  0  0  0
   27.7136    6.5566   63.7950 H   0  0  0  0  0  0  0  0  0  0  0  0
   27.1942    3.4302   62.9997 H   0  0  0  0  0  0  0  0  0  0  0  0
   24.4867    3.8311   63.6738 H   0  0  0  0  0  0  0  0  0  0  0  0
   23.2318    2.3855   61.9714 H   0  0  0  0  0  0  0  0  0  0  0  0
   24.4396    2.7863   59.5552 H   0  0  0  0  0  0  0  0  0  0  0  0
   26.9237    1.9172   61.1147 H   0  0  0  0  0  0  0  0  0  0  0  0
   26.7591    2.6794   59.5109 H   0  0  0  0  0  0  0  0  0  0  0  0
   23.8459    0.7815   61.0360 H   0  0  0  0  0  0  0  0  0  0  0  0
   23.9581    4.9594   61.9090 H   0  0  0  0  0  0  0  0  0  0  0  0
   24.4782    1.5041   63.6279 H   0  0  0  0  0  0  0  0  0  0  0  0
  1  2  1  0
  3  2  1  0
  3  4  1  0
  4  5  1  0
  5  6  1  0
  6  7  1  0
  3  8  1  0
  7  8  1  0
  6  9  1  0
  5 10  1  0
  4 11  1  0
  1 12  1  1
  1 13  1  0
  1 14  1  0
  3 15  1  1
  4 16  1  1
  5 17  1  1
  6 18  1  6
  7 19  1  1
  7 20  1  0
  9 21  1  0
 10 22  1  0
 11 23  1  0
M  END
