7LEV_0JO_B_406
     RDKit          3D

 34 34  0  0  0  0  0  0  0  0999 V2000
   -5.4335   -1.3893    5.7690 O   0  0  0  0  0  0  0  0  0  0  0  0
   -4.5927   -2.1343    5.1956 C   0  0  0  0  0  0  0  0  0  0  0  0
   -4.2163   -3.3292    5.8021 O   0  0  0  0  0  0  0  0  0  0  0  0
   -4.0347   -1.7601    3.8729 C   0  0  0  0  0  0  0  0  0  0  0  0
   -4.5739   -2.2459    2.7534 C   0  0  0  0  0  0  0  0  0  0  0  0
   -2.8621   -0.9398    3.7565 N   0  0  0  0  0  0  0  0  0  0  0  0
   -1.8240   -1.2263    3.0318 C   0  0  0  0  0  0  0  0  0  0  0  0
   -0.6706   -0.3023    2.9668 C   0  0  0  0  0  0  0  0  0  0  0  0
   -0.6730    0.8733    3.7550 C   0  0  0  0  0  0  0  0  0  0  0  0
   -1.7657    1.2283    4.5539 O   0  0  0  0  0  0  0  0  0  0  0  0
    0.4418    1.7256    3.7233 C   0  0  0  0  0  0  0  0  0  0  0  0
    0.4722    2.9804    4.5417 C   0  0  0  0  0  0  0  0  0  0  0  0
    1.5007    1.4286    2.9280 N   0  0  0  0  0  0  0  0  0  0  0  0
    1.5351    0.3140    2.1578 C   0  0  0  0  0  0  0  0  0  0  0  0
    0.4636   -0.5909    2.1620 C   0  0  0  0  0  0  0  0  0  0  0  0
    0.5834   -1.8548    1.3330 C   0  0  0  0  0  0  0  0  0  0  0  0
    0.0472   -2.9727    2.0094 O   0  0  0  0  0  0  0  0  0  0  0  0
   -1.4512   -2.5532    2.7129 P   0  0  2  0  0  5  0  0  0  0  0  0
   -1.3280   -1.1797    3.3324 O   0  0  0  0  0  0  0  0  0  0  0  0
   -1.8626   -3.6674    3.9196 O   0  0  0  0  0  0  0  0  0  0  0  0
   -2.6610   -2.5185    1.5280 O   0  0  0  0  0  0  0  0  0  0  0  0
   -4.5982   -3.6000    6.7005 H   0  0  0  0  0  0  0  0  0  0  0  0
   -5.4375   -2.8986    2.7764 H   0  0  0  0  0  0  0  0  0  0  0  0
   -4.1500   -1.9960    1.7887 H   0  0  0  0  0  0  0  0  0  0  0  0
   -1.7604   -2.1779    2.5201 H   0  0  0  0  0  0  0  0  0  0  0  0
   -2.6346    0.7114    4.5753 H   0  0  0  0  0  0  0  0  0  0  0  0
    1.4452    3.5024    4.4214 H   0  0  0  0  0  0  0  0  0  0  0  0
   -0.3399    3.6626    4.2132 H   0  0  0  0  0  0  0  0  0  0  0  0
    0.3343    2.7340    5.6156 H   0  0  0  0  0  0  0  0  0  0  0  0
    2.4131    0.1251    1.5535 H   0  0  0  0  0  0  0  0  0  0  0  0
    1.6273   -2.0331    0.9863 H   0  0  0  0  0  0  0  0  0  0  0  0
    0.0070   -1.7073    0.3969 H   0  0  0  0  0  0  0  0  0  0  0  0
   -2.7469   -3.3691    4.2511 H   0  0  0  0  0  0  0  0  0  0  0  0
   -3.4904   -2.2876    2.0178 H   0  0  0  0  0  0  0  0  0  0  0  0
  1  2  2  0
  2  3  1  0
  2  4  1  0
  4  5  2  3
  4  6  1  0
  6  7  2  3
  7  8  1  0
  8  9  4  0
  9 10  1  0
  9 11  4  0
 11 12  1  0
 11 13  4  0
 13 14  4  0
  8 15  4  0
 14 15  4  0
 15 16  1  0
 16 17  1  0
 18 17  1  6
 18 19  2  0
 18 20  1  0
 18 21  1  0
  3 22  1  0
  5 23  1  0
  5 24  1  0
  7 25  1  0
 10 26  1  0
 12 27  1  0
 12 28  1  0
 12 29  1  0
 14 30  1  0
 16 31  1  0
 16 32  1  0
 20 33  1  0
 21 34  1  0
M  END
