7RUI_7QZ_A_201
     RDKit          3D

 80 85  0  0  0  0  0  0  0  0999 V2000
   17.9478   15.9155    2.5443 C   0  0  0  0  0  0  0  0  0  0  0  0
   13.8726   14.4078    4.8311 C   0  0  0  0  0  0  0  0  0  0  0  0
   13.1377   13.8318    3.7761 C   0  0  0  0  0  0  0  0  0  0  0  0
   11.8067   13.3980    3.8876 C   0  0  0  0  0  0  0  0  0  0  0  0
   11.1596   13.6519    5.0682 C   0  0  0  0  0  0  0  0  0  0  0  0
   11.8537   14.2969    6.1145 C   0  0  0  0  0  0  0  0  0  0  0  0
   13.2138   14.6693    5.9947 C   0  0  0  0  0  0  0  0  0  0  0  0
    9.7781   13.8042    6.8599 C   0  0  0  0  0  0  0  0  0  0  0  0
    9.8534   13.3629    5.5507 C   0  0  0  0  0  0  0  0  0  0  0  0
   11.3236   14.8752    8.5529 C   0  0  2  0  0  0  0  0  0  0  0  0
   10.1914   14.3929    9.5549 C   0  0  0  0  0  0  0  0  0  0  0  0
   11.3911   16.3562    8.6372 C   0  0  0  0  0  0  0  0  0  0  0  0
   12.3078   18.3173    9.6339 C   0  0  0  0  0  0  0  0  0  0  0  0
   18.1314   14.9661    4.7731 C   0  0  0  0  0  0  0  0  0  0  0  0
   17.4382   14.4088    5.9353 C   0  0  0  0  0  0  0  0  0  0  0  0
   16.0907   14.2764    5.8772 C   0  0  0  0  0  0  0  0  0  0  0  0
   15.2952   14.6357    4.7450 C   0  0  0  0  0  0  0  0  0  0  0  0
   15.9587   15.1641    3.6869 C   0  0  0  0  0  0  0  0  0  0  0  0
   17.3045   15.3052    3.7189 N   0  0  0  0  0  4  0  0  0  0  0  0
   10.9610   14.4207    7.2063 N   0  0  0  0  0  4  0  0  0  0  0  0
   12.2454   16.9507    9.5528 N   0  0  0  0  0  0  0  0  0  0  0  0
   11.5621   19.0862    8.7621 C   0  0  0  0  0  0  0  0  0  0  0  0
   10.7876   18.4389    7.8512 C   0  0  0  0  0  0  0  0  0  0  0  0
   10.6616   17.1055    7.7779 C   0  0  0  0  0  0  0  0  0  0  0  0
   12.6944   14.2291    8.9615 C   0  0  0  0  0  0  0  0  0  0  0  0
   12.8762   13.0483    9.6074 C   0  0  0  0  0  0  0  0  0  0  0  0
   14.1449   12.5304    9.9688 C   0  0  0  0  0  0  0  0  0  0  0  0
   15.2887   13.2084    9.5861 C   0  0  0  0  0  0  0  0  0  0  0  0
   15.0737   14.3940    8.8688 C   0  0  0  0  0  0  0  0  0  0  0  0
   13.8519   14.9099    8.5468 N   0  0  0  0  0  0  0  0  0  0  0  0
   11.0902   12.7474    2.8787 N   0  0  0  0  0  0  0  0  0  0  0  0
   11.1726   11.1310    2.5899 S   0  0  1  0  0  6  0  0  0  0  0  0
   12.7913   10.7646    1.8833 C   0  0  0  0  0  0  0  0  0  0  0  0
   12.8768   11.1595    0.4927 C   0  0  2  0  0  0  0  0  0  0  0  0
   11.8220   11.7885    0.0367 F   0  0  0  0  0  0  0  0  0  0  0  0
   12.9370   10.0601   -0.3983 F   0  0  0  0  0  0  0  0  0  0  0  0
   13.9377   11.9193    0.0792 F   0  0  0  0  0  0  0  0  0  0  0  0
   11.1486   10.4482    3.7961 O   0  0  0  0  0  0  0  0  0  0  0  0
   10.1733   10.8508    1.6050 O   0  0  0  0  0  0  0  0  0  0  0  0
   18.2273   14.0505    6.9867 N   0  0  0  0  0  0  0  0  0  0  0  0
   18.2603   12.8559    7.6762 C   0  0  0  0  0  0  0  0  0  0  0  0
   17.3538   11.9020    7.2528 N   0  0  0  0  0  0  0  0  0  0  0  0
   16.8529   11.8705    5.9364 C   0  0  0  0  0  0  0  0  0  0  0  0
   17.4771   11.4978    4.8106 C   0  0  0  0  0  0  0  0  0  0  0  0
   16.8712   11.5141    3.5414 C   0  0  0  0  0  0  0  0  0  0  0  0
   15.6001   11.9772    3.4241 C   0  0  0  0  0  0  0  0  0  0  0  0
   14.9395   12.3945    4.5462 C   0  0  0  0  0  0  0  0  0  0  0  0
   15.6085   12.3232    5.7844 C   0  0  0  0  0  0  0  0  0  0  0  0
   14.9925   12.6557    6.8944 F   0  0  0  0  0  0  0  0  0  0  0  0
   19.0692   12.7268    8.5893 O   0  0  0  0  0  0  0  0  0  0  0  0
   19.3619   15.1208    4.7390 O   0  0  0  0  0  0  0  0  0  0  0  0
   19.0048   15.9656    2.7025 H   0  0  0  0  0  0  0  0  0  0  0  0
   17.7447   15.3217    1.6776 H   0  0  0  0  0  0  0  0  0  0  0  0
   17.5617   16.9026    2.3988 H   0  0  0  0  0  0  0  0  0  0  0  0
   13.6071   13.7218    2.8637 H   0  0  0  0  0  0  0  0  0  0  0  0
   13.7000   15.1326    6.7782 H   0  0  0  0  0  0  0  0  0  0  0  0
    8.9621   13.6894    7.4811 H   0  0  0  0  0  0  0  0  0  0  0  0
    9.0964   12.9054    5.0190 H   0  0  0  0  0  0  0  0  0  0  0  0
    9.2570   14.8335    9.2762 H   0  0  0  0  0  0  0  0  0  0  0  0
   10.1093   13.3269    9.5140 H   0  0  0  0  0  0  0  0  0  0  0  0
   10.4444   14.6933   10.5503 H   0  0  0  0  0  0  0  0  0  0  0  0
   12.9080   18.7688   10.3417 H   0  0  0  0  0  0  0  0  0  0  0  0
   15.6076   13.8913    6.7038 H   0  0  0  0  0  0  0  0  0  0  0  0
   15.4331   15.4611    2.8499 H   0  0  0  0  0  0  0  0  0  0  0  0
   11.5918   20.1171    8.8006 H   0  0  0  0  0  0  0  0  0  0  0  0
   10.2622   19.0109    7.1717 H   0  0  0  0  0  0  0  0  0  0  0  0
   10.0302   16.6660    7.0901 H   0  0  0  0  0  0  0  0  0  0  0  0
   12.0397   12.4945    9.8496 H   0  0  0  0  0  0  0  0  0  0  0  0
   14.2150   11.6559   10.5122 H   0  0  0  0  0  0  0  0  0  0  0  0
   16.2350   12.8651    9.8130 H   0  0  0  0  0  0  0  0  0  0  0  0
   15.9067   14.9188    8.5595 H   0  0  0  0  0  0  0  0  0  0  0  0
   10.5007   13.2900    2.3066 H   0  0  0  0  0  0  0  0  0  0  0  0
   13.5384   11.2918    2.4390 H   0  0  0  0  0  0  0  0  0  0  0  0
   12.9442    9.7070    1.9370 H   0  0  0  0  0  0  0  0  0  0  0  0
   18.8603   14.7378    7.2968 H   0  0  0  0  0  0  0  0  0  0  0  0
   17.0474   11.2205    7.8938 H   0  0  0  0  0  0  0  0  0  0  0  0
   18.4570   11.1812    4.8787 H   0  0  0  0  0  0  0  0  0  0  0  0
   17.3850   11.1790    2.7115 H   0  0  0  0  0  0  0  0  0  0  0  0
   15.1393   12.0137    2.5014 H   0  0  0  0  0  0  0  0  0  0  0  0
   13.9737   12.7533    4.4878 H   0  0  0  0  0  0  0  0  0  0  0  0
  2  3  4  0
  3  4  4  0
  4  5  4  0
  5  6  4  0
  6  7  4  0
  2  7  4  0
  8  9  4  0
  5  9  4  0
 10 11  1  6
 10 12  1  0
 14 15  4  0
 15 16  4  0
 16 17  4  0
  2 17  1  0
 17 18  4  0
 14 19  4  0
 18 19  4  0
  1 19  1  0
 10 20  1  0
  8 20  4  0
  6 20  4  0
 12 21  4  0
 13 21  4  0
 13 22  4  0
 22 23  4  0
 23 24  4  0
 12 24  4  0
 10 25  1  0
 25 26  4  0
 26 27  4  0
 27 28  4  0
 28 29  4  0
 29 30  4  0
 25 30  4  0
  4 31  1  0
 32 31  1  6
 32 33  1  0
 33 34  1  0
 34 35  1  1
 34 36  1  0
 34 37  1  0
 32 38  2  0
 32 39  2  0
 15 40  1  0
 40 41  1  0
 41 42  1  0
 42 43  1  0
 43 44  4  0
 44 45  4  0
 45 46  4  0
 46 47  4  0
 47 48  4  0
 43 48  4  0
 48 49  1  0
 41 50  2  0
 14 51  2  0
  1 52  1  0
  1 53  1  0
  1 54  1  0
  3 55  1  0
  7 56  1  0
  8 57  1  0
  9 58  1  0
 11 59  1  0
 11 60  1  0
 11 61  1  0
 13 62  1  0
 16 63  1  0
 18 64  1  0
 22 65  1  0
 23 66  1  0
 24 67  1  0
 26 68  1  0
 27 69  1  0
 28 70  1  0
 29 71  1  0
 31 72  1  0
 33 73  1  0
 33 74  1  0
 40 75  1  0
 42 76  1  0
 44 77  1  0
 45 78  1  0
 46 79  1  0
 47 80  1  0
M  CHG  2  19   1  20   1
M  END
