
     RDKit          3D

 23 23  0  0  0  0  0  0  0  0999 V2000
   16.7503    6.6804   22.9945 C   0  0  0  0  0  0  0  0  0  0  0  0
   16.0219    4.9069   21.7161 C   0  0  0  0  0  0  0  0  0  0  0  0
   17.5028    5.8649   23.8420 C   0  0  0  0  0  0  0  0  0  0  0  0
   18.3331    3.5568   24.4808 C   0  0  0  0  0  0  0  0  0  0  0  0
   17.5015    4.4717   23.5947 C   0  0  0  0  0  0  0  0  0  0  0  0
   16.7409    4.0064   22.5068 C   0  0  0  0  0  0  0  0  0  0  0  0
   15.2022    4.4285   20.5512 C   0  0  0  0  0  0  0  0  0  0  0  0
   16.0179    6.2402   21.9517 N   0  0  0  0  0  0  0  0  0  0  0  0
   16.6762    2.6785   22.1828 O   0  0  0  0  0  0  0  0  0  0  0  0
   18.3572    2.1490   24.0503 N   0  0  0  0  0  0  0  0  0  0  0  0
   18.2500    6.5059   24.9843 C   0  0  0  0  0  0  0  0  0  0  0  0
   17.6540    6.1284   26.2097 O   0  0  0  0  0  0  0  0  0  0  0  0
   18.6517    5.6876   27.3759 P   0  0  0  0  0  5  0  0  0  0  0  0
   17.7593    5.8431   28.6873 O   0  0  0  0  0  0  0  0  0  0  0  0
   19.3063    4.3590   27.2350 O   0  0  0  0  0  0  0  0  0  0  0  0
   19.6645    6.9148   27.5178 O   0  0  0  0  0  0  0  0  0  0  0  0
   19.2245    1.3783   24.6376 C   0  0  0  0  0  0  0  0  0  0  0  0
   19.2848   -0.0744   24.2107 C   0  0  0  0  0  0  0  0  0  0  0  0
   20.2014    1.7319   25.7287 C   0  0  0  0  0  0  0  0  0  0  0  0
   18.9238   -0.4663   23.1208 O   0  0  0  0  0  0  0  0  0  0  0  0
   19.7901   -0.8628   25.1625 O   0  0  0  0  0  0  0  0  0  0  0  0
   21.3617    2.2559   25.0863 O   0  0  0  0  0  0  0  0  0  0  0  0
   22.4548    1.3068   25.2669 N   0  0  0  0  0  0  0  0  0  0  0  0
  1  3  4  0
  3  5  4  0
  4  5  1  0
  2  6  4  0
  5  6  4  0
  2  7  1  0
  2  8  4  0
  1  8  4  0
  6  9  1  0
  4 10  1  0
  3 11  1  0
 11 12  1  0
 12 13  1  0
 13 14  1  0
 13 15  2  0
 13 16  1  0
 10 17  2  0
 17 18  1  0
 17 19  1  0
 18 20  2  0
 18 21  1  0
 19 22  1  0
 22 23  1  0
M  END
