6XAF_GDP_B_1602
     RDKit          3D

 28 30  0  0  0  0  0  0  0  0999 V2000
   26.1941   -3.9032    6.2053 P   0  0  1  0  0  5  0  0  0  0  0  0
   26.7055   -5.3179    6.3327 O   0  0  0  0  0  0  0  0  0  0  0  0
   25.5567   -3.7446    4.6330 O   0  0  0  0  0  0  0  0  0  0  0  0
   24.9665   -3.7156    7.3578 O   0  0  0  0  0  0  0  0  0  0  0  0
   27.4573   -2.8181    6.4622 O   0  0  0  0  0  0  0  0  0  0  0  0
   28.4395   -3.4626    7.6848 P   0  0  1  0  0  5  0  0  0  0  0  0
   28.7989   -2.3365    8.6262 O   0  0  0  0  0  0  0  0  0  0  0  0
   27.5600   -4.6226    8.5096 O   0  0  0  0  0  0  0  0  0  0  0  0
   29.8831   -4.0692    7.0478 O   0  0  0  0  0  0  0  0  0  0  0  0
   30.7405   -4.5216    8.0251 C   0  0  0  0  0  0  0  0  0  0  0  0
   31.9429   -3.6739    8.2675 C   0  0  1  0  0  0  0  0  0  0  0  0
   32.0319   -2.6773    7.2682 O   0  0  0  0  0  0  0  0  0  0  0  0
   31.8385   -2.7859    9.4929 C   0  0  1  0  0  0  0  0  0  0  0  0
   31.9819   -3.4611   10.6819 O   0  0  0  0  0  0  0  0  0  0  0  0
   33.0218   -1.8493    9.2179 C   0  0  1  0  0  0  0  0  0  0  0  0
   34.1655   -2.5127    9.7170 O   0  0  0  0  0  0  0  0  0  0  0  0
   33.0186   -1.8046    7.7083 C   0  0  2  0  0  0  0  0  0  0  0  0
   32.8433   -0.4489    7.2774 N   0  0  0  0  0  0  0  0  0  0  0  0
   31.7532    0.2909    7.0661 C   0  0  0  0  0  0  0  0  0  0  0  0
   32.0793    1.5372    6.6583 N   0  0  0  0  0  0  0  0  0  0  0  0
   33.4299    1.6088    6.6029 C   0  0  0  0  0  0  0  0  0  0  0  0
   34.3286    2.6209    6.2566 C   0  0  0  0  0  0  0  0  0  0  0  0
   33.8988    3.7589    5.9016 O   0  0  0  0  0  0  0  0  0  0  0  0
   35.6650    2.3582    6.3089 N   0  0  0  0  0  0  0  0  0  0  0  0
   36.1192    1.1479    6.6865 C   0  0  0  0  0  0  0  0  0  0  0  0
   37.5067    0.8265    6.7565 N   0  0  0  0  0  0  0  0  0  0  0  0
   35.2423    0.1798    7.0182 N   0  0  0  0  0  0  0  0  0  0  0  0
   33.8952    0.3690    6.9897 C   0  0  0  0  0  0  0  0  0  0  0  0
  1  2  2  0
  1  3  1  6
  1  4  1  0
  1  5  1  0
  6  5  1  0
  6  7  2  0
  6  8  1  1
  6  9  1  0
 10  9  1  6
 11 10  1  0
 11 12  1  6
 11 13  1  0
 13 14  1  1
 13 15  1  0
 15 16  1  6
 12 17  1  0
 15 17  1  0
 17 18  1  1
 18 19  1  0
 19 20  2  0
 20 21  1  0
 21 22  1  0
 22 23  2  0
 22 24  1  0
 24 25  1  0
 25 26  1  0
 25 27  2  0
 18 28  1  0
 21 28  2  0
 27 28  1  0
M  END
$$$$
