
     RDKit          3D

 10  9  0  0  0  0  0  0  0  0999 V2000
   -2.8287    1.5089   -3.8530 P   0  0  0  0  0  5  0  0  0  0  0  0
   -1.6304    2.1487   -3.2564 O   0  0  0  0  0  0  0  0  0  0  0  0
   -2.7311    1.2895   -5.4394 O   0  0  0  0  0  0  0  0  0  0  0  0
   -4.1590    2.4004   -3.7691 O   0  0  0  0  0  0  0  0  0  0  0  0
   -0.2789   -3.7915   -3.6608 O   0  0  0  0  0  0  0  0  0  0  0  0
   -0.0725   -1.6453   -4.2777 O   0  0  0  0  0  0  0  0  0  0  0  0
   -3.3655   -0.1228   -3.2345 C   0  0  0  0  0  0  0  0  0  0  0  0
   -2.1694   -2.3920   -3.2554 C   0  0  0  0  0  0  0  0  0  0  0  0
   -0.7459   -2.5255   -3.7783 C   0  0  0  0  0  0  0  0  0  0  0  0
   -2.9708   -1.3694   -4.0180 N   0  0  0  0  0  4  0  0  0  0  0  0
  1  2  2  0
  1  3  1  0
  1  4  1  0
  1  7  1  0
  5  9  1  0
  6  9  2  0
  8  9  1  0
  7 10  1  0
  8 10  1  0
M  CHG  1  10   1
M  END
