7MS7_ZQ1_A_302
     RDKit          3D

 49 51  0  0  0  0  0  0  0  0999 V2000
    5.8797   46.6831  -24.0259 C   0  0  1  0  0  0  0  0  0  0  0  0
    5.5864   45.5651  -23.0089 C   0  0  1  0  0  0  0  0  0  0  0  0
    6.3894   45.7194  -21.6885 C   0  0  2  0  0  0  0  0  0  0  0  0
    5.5854   46.2741  -20.5167 C   0  0  0  0  0  0  0  0  0  0  0  0
    5.8905   45.9736  -19.1720 C   0  0  0  0  0  0  0  0  0  0  0  0
    4.4494   47.0604  -20.7879 C   0  0  0  0  0  0  0  0  0  0  0  0
    4.7401   49.2328  -25.5156 C   0  0  0  0  0  0  0  0  0  0  0  0
    6.1346   50.5776  -23.6825 O   0  0  0  0  0  0  0  0  0  0  0  0
    6.1454   49.2843  -24.4491 S   0  0  2  0  0  6  0  0  0  0  0  0
    7.4008   49.2430  -25.2758 O   0  0  0  0  0  0  0  0  0  0  0  0
    4.0060   48.0510  -25.6652 C   0  0  0  0  0  0  0  0  0  0  0  0
    2.9300   48.0159  -26.4951 N   0  0  0  0  0  0  0  0  0  0  0  0
    2.5228   49.1060  -27.2028 C   0  0  0  0  0  0  0  0  0  0  0  0
    1.3454   49.0060  -28.0929 C   0  0  0  0  0  0  0  0  0  0  0  0
    0.8554   50.0508  -28.6032 O   0  0  0  0  0  0  0  0  0  0  0  0
    0.7541   47.7283  -28.3812 N   0  0  0  0  0  0  0  0  0  0  0  0
   -0.4739   47.5947  -29.1609 C   0  0  2  0  0  0  0  0  0  0  0  0
   -0.2193   47.9555  -30.5892 C   0  0  0  0  0  0  0  0  0  0  0  0
   -0.0080   46.9514  -31.5287 O   0  0  0  0  0  0  0  0  0  0  0  0
   -0.1725   49.1654  -30.9381 O   0  0  0  0  0  0  0  0  0  0  0  0
    3.2343   50.3103  -27.0752 C   0  0  0  0  0  0  0  0  0  0  0  0
    4.3427   50.3686  -26.2289 C   0  0  0  0  0  0  0  0  0  0  0  0
    6.1452   47.9476  -23.3255 N   0  0  0  0  0  0  0  0  0  0  0  0
    7.4149   47.9061  -22.5709 C   0  0  2  0  0  0  0  0  0  0  0  0
    7.6770   46.5359  -21.9089 C   0  0  2  0  0  0  0  0  0  0  0  0
    3.6558   47.5521  -19.7478 C   0  0  0  0  0  0  0  0  0  0  0  0
    3.9778   47.2577  -18.4210 C   0  0  0  0  0  0  0  0  0  0  0  0
    2.9795   47.8737  -17.1168 Cl  0  0  0  0  0  0  0  0  0  0  0  0
    5.0938   46.4678  -18.1349 C   0  0  0  0  0  0  0  0  0  0  0  0
    6.7550   46.3980  -24.6530 H   0  0  0  0  0  0  0  0  0  0  0  0
    4.9978   46.7867  -24.6951 H   0  0  0  0  0  0  0  0  0  0  0  0
    4.4953   45.5122  -22.8034 H   0  0  0  0  0  0  0  0  0  0  0  0
    5.8523   44.5960  -23.4860 H   0  0  0  0  0  0  0  0  0  0  0  0
    6.7088   44.6914  -21.4019 H   0  0  0  0  0  0  0  0  0  0  0  0
    6.7448   45.3676  -18.9103 H   0  0  0  0  0  0  0  0  0  0  0  0
    4.1736   47.2899  -21.8099 H   0  0  0  0  0  0  0  0  0  0  0  0
    4.2904   47.1562  -25.1276 H   0  0  0  0  0  0  0  0  0  0  0  0
    1.1968   46.8565  -28.0132 H   0  0  0  0  0  0  0  0  0  0  0  0
   -1.2720   48.2355  -28.7266 H   0  0  0  0  0  0  0  0  0  0  0  0
   -0.8250   46.5414  -29.1194 H   0  0  0  0  0  0  0  0  0  0  0  0
   -0.5560   46.9130  -32.3798 H   0  0  0  0  0  0  0  0  0  0  0  0
    2.9390   51.1962  -27.6235 H   0  0  0  0  0  0  0  0  0  0  0  0
    4.8913   51.2971  -26.1345 H   0  0  0  0  0  0  0  0  0  0  0  0
    7.3713   48.6805  -21.7749 H   0  0  0  0  0  0  0  0  0  0  0  0
    8.2809   48.1455  -23.2254 H   0  0  0  0  0  0  0  0  0  0  0  0
    8.3501   45.9469  -22.5713 H   0  0  0  0  0  0  0  0  0  0  0  0
    8.2189   46.6768  -20.9478 H   0  0  0  0  0  0  0  0  0  0  0  0
    2.7880   48.1579  -19.9755 H   0  0  0  0  0  0  0  0  0  0  0  0
    5.3449   46.2338  -17.1082 H   0  0  0  0  0  0  0  0  0  0  0  0
  1  2  1  0
  2  3  1  0
  3  4  1  0
  4  5  2  0
  4  6  1  0
  8  9  2  0
  7  9  1  0
  9 10  2  0
  7 11  2  0
 11 12  1  0
 12 13  2  0
 13 14  1  0
 14 15  2  0
 14 16  1  0
 16 17  1  0
 17 18  1  0
 18 19  1  0
 18 20  2  0
 13 21  1  0
  7 22  1  0
 21 22  2  0
  1 23  1  0
  9 23  1  1
 23 24  1  0
  3 25  1  0
 24 25  1  0
  6 26  2  0
 26 27  1  0
 27 28  1  0
 27 29  2  0
  5 29  1  0
  1 30  1  6
  1 31  1  0
  2 32  1  1
  2 33  1  0
  3 34  1  1
  5 35  1  0
  6 36  1  0
 11 37  1  0
 16 38  1  0
 17 39  1  1
 17 40  1  0
 19 41  1  0
 21 42  1  0
 22 43  1  0
 24 44  1  1
 24 45  1  0
 25 46  1  6
 25 47  1  0
 26 48  1  0
 29 49  1  0
M  END
