7XPO_UPG_A_402
     RDKit          3D

 36 38  0  0  0  0  0  0  0  0999 V2000
  -15.5803    5.7940    1.3861 N   0  0  0  0  0  0  0  0  0  0  0  0
  -15.2474    5.1967    0.2278 C   0  0  0  0  0  0  0  0  0  0  0  0
  -16.1584    5.0042   -0.7677 N   0  0  0  0  0  0  0  0  0  0  0  0
  -17.4445    5.4074   -0.6344 C   0  0  0  0  0  0  0  0  0  0  0  0
  -17.8121    6.0270    0.5533 C   0  0  0  0  0  0  0  0  0  0  0  0
  -16.8530    6.2015    1.5373 C   0  0  0  0  0  0  0  0  0  0  0  0
  -14.0853    4.8050    0.0450 O   0  0  0  0  0  0  0  0  0  0  0  0
  -18.2972    5.2393   -1.5388 O   0  0  0  0  0  0  0  0  0  0  0  0
  -14.6393    6.0160    2.4670 C   0  0  1  0  0  0  0  0  0  0  0  0
  -14.0558    7.4002    2.2805 C   0  0  2  0  0  0  0  0  0  0  0  0
  -12.8738    7.5355    3.0152 O   0  0  0  0  0  0  0  0  0  0  0  0
  -15.0981    8.2270    3.0326 C   0  0  1  0  0  0  0  0  0  0  0  0
  -15.3508    7.2688    4.1767 C   0  0  2  0  0  0  0  0  0  0  0  0
  -15.3377    6.0015    3.6635 O   0  0  0  0  0  0  0  0  0  0  0  0
  -14.5983    9.4455    3.4113 O   0  0  0  0  0  0  0  0  0  0  0  0
  -16.5978    7.6330    4.9466 C   0  0  0  0  0  0  0  0  0  0  0  0
  -16.8198    6.5906    5.8454 O   0  0  0  0  0  0  0  0  0  0  0  0
  -18.0405    6.9419    6.9396 P   0  0  2  0  0  0  0  0  0  0  0  0
  -19.3752    6.6638    6.2947 O   0  0  0  0  0  0  0  0  0  0  0  0
  -17.9955    8.5760    7.3534 O   0  0  0  0  0  0  0  0  0  0  0  0
  -17.9188    5.9539    8.3283 O   0  0  0  0  0  0  0  0  0  0  0  0
  -19.1150    6.4685    9.4255 P   0  0  2  0  0  0  0  0  0  0  0  0
  -18.6118    7.7194   10.1174 O   0  0  0  0  0  0  0  0  0  0  0  0
  -19.3636    5.2948   10.6350 O   0  0  0  0  0  0  0  0  0  0  0  0
  -20.5066    6.7501    8.5455 O   0  0  0  0  0  0  0  0  0  0  0  0
  -21.6833    6.5857    9.3069 C   0  0  2  0  0  0  0  0  0  0  0  0
  -22.7805    7.2284    8.4952 C   0  0  1  0  0  0  0  0  0  0  0  0
  -23.0998    8.6202    8.9697 C   0  0  2  0  0  0  0  0  0  0  0  0
  -23.4792    8.5009   10.4326 C   0  0  1  0  0  0  0  0  0  0  0  0
  -22.5582    7.6100   11.2019 C   0  0  1  0  0  0  0  0  0  0  0  0
  -23.3567    6.4933   11.8359 C   0  0  0  0  0  0  0  0  0  0  0  0
  -22.4292    7.3245    7.1490 O   0  0  0  0  0  0  0  0  0  0  0  0
  -24.2483    9.0438    8.2919 O   0  0  0  0  0  0  0  0  0  0  0  0
  -23.5212    9.8100   10.9365 O   0  0  0  0  0  0  0  0  0  0  0  0
  -21.4447    7.1820   10.5195 O   0  0  0  0  0  0  0  0  0  0  0  0
  -22.6021    5.7335   12.7137 O   0  0  0  0  0  0  0  0  0  0  0  0
  1  2  1  0
  2  3  1  0
  3  4  1  0
  4  5  1  0
  1  6  1  0
  5  6  2  0
  2  7  2  0
  4  8  2  0
  9  1  1  6
  9 10  1  0
 10 11  1  1
 10 12  1  0
 12 13  1  0
  9 14  1  0
 13 14  1  0
 12 15  1  1
 13 16  1  6
 16 17  1  0
 17 18  1  0
 18 19  2  0
 18 20  1  1
 18 21  1  0
 21 22  1  0
 22 23  2  0
 22 24  1  1
 22 25  1  0
 26 25  1  6
 26 27  1  0
 27 28  1  0
 28 29  1  0
 29 30  1  0
 30 31  1  6
 27 32  1  6
 28 33  1  6
 29 34  1  1
 26 35  1  0
 30 35  1  0
 31 36  1  0
M  END
$$$$
