7NML_I7B_B_201
     RDKit          3D

 16 16  0  0  0  0  0  0  0  0999 V2000
   12.4689   15.7673  -22.6166 C   0  0  0  0  0  0  0  0  0  0  0  0
   12.5998   17.0944  -22.2728 C   0  0  0  0  0  0  0  0  0  0  0  0
   11.9744   17.5340  -21.1225 C   0  0  0  0  0  0  0  0  0  0  0  0
   11.2449   16.6518  -20.3552 C   0  0  0  0  0  0  0  0  0  0  0  0
   11.1197   15.3285  -20.7064 C   0  0  0  0  0  0  0  0  0  0  0  0
   11.7449   14.8806  -21.8597 C   0  0  0  0  0  0  0  0  0  0  0  0
   13.5133   18.2434  -23.2153 S   0  0  1  0  0  6  0  0  0  0  0  0
   12.5375   19.0371  -24.3871 N   0  0  0  0  0  0  0  0  0  0  0  0
   14.2508   19.2107  -22.3343 O   0  0  0  0  0  0  0  0  0  0  0  0
   14.5913   17.4490  -23.9365 O   0  0  0  0  0  0  0  0  0  0  0  0
   11.5607   13.1983  -22.2672 S   0  0  1  0  0  6  0  0  0  0  0  0
   12.4246   12.8486  -23.6626 N   0  0  0  0  0  0  0  0  0  0  0  0
   12.0489   12.3318  -21.1472 O   0  0  0  0  0  0  0  0  0  0  0  0
   10.1078   12.9526  -22.5107 O   0  0  0  0  0  0  0  0  0  0  0  0
   12.0969   18.9176  -20.7424 N   0  0  0  0  0  0  0  0  0  0  0  0
   10.1845   14.2606  -19.6969 Cl  0  0  0  0  0  0  0  0  0  0  0  0
  1  2  2  0
  2  3  1  0
  3  4  2  0
  4  5  1  0
  1  6  1  0
  5  6  2  0
  2  7  1  0
  7  8  1  6
  7  9  2  0
  7 10  2  0
  6 11  1  0
 11 12  1  6
 11 13  2  0
 11 14  2  0
  3 15  1  0
  5 16  1  0
M  END
$$$$
