7JY3_VUD_A_204
     RDKit          3D

 27 30  0  0  0  0  0  0  0  0999 V2000
    7.5732   -4.3477   44.8181 C   0  0  0  0  0  0  0  0  0  0  0  0
   10.1042   -3.7602   45.5973 C   0  0  0  0  0  0  0  0  0  0  0  0
    9.1898   -4.1576   46.5748 C   0  0  0  0  0  0  0  0  0  0  0  0
    4.2409   -4.0663   43.8394 C   0  0  0  0  0  0  0  0  0  0  0  0
    8.8816   -2.4400   42.0099 O   0  0  0  0  0  0  0  0  0  0  0  0
    5.1535    1.6193   44.5916 C   0  0  0  0  0  0  0  0  0  0  0  0
    5.9482    2.7115   44.3378 C   0  0  0  0  0  0  0  0  0  0  0  0
    6.7059    0.1386   43.5463 C   0  0  0  0  0  0  0  0  0  0  0  0
    8.3288   -1.2658   42.4750 C   0  0  0  0  0  0  0  0  0  0  0  0
    5.4868    0.3527   44.2364 C   0  0  0  0  0  0  0  0  0  0  0  0
    8.9498   -4.7505   41.5408 C   0  0  0  0  0  0  0  0  0  0  0  0
    8.2951   -3.6861   42.3954 C   0  0  1  0  0  0  0  0  0  0  0  0
    8.5300   -3.9222   43.8771 C   0  0  0  0  0  0  0  0  0  0  0  0
    7.9067   -4.4784   46.1623 C   0  0  0  0  0  0  0  0  0  0  0  0
    9.7744   -3.6486   44.2935 N   0  0  0  0  0  0  0  0  0  0  0  0
   11.3560   -3.5363   45.9129 O   0  0  0  0  0  0  0  0  0  0  0  0
    6.2148   -4.5663   44.4331 N   0  0  0  0  0  0  0  0  0  0  0  0
    5.5930   -5.7504   44.1960 C   0  0  0  0  0  0  0  0  0  0  0  0
    4.3199   -5.4588   43.8098 C   0  0  0  0  0  0  0  0  0  0  0  0
    5.3828   -3.5068   44.2252 N   0  0  0  0  0  0  0  0  0  0  0  0
    7.1362   -1.1436   43.1328 C   0  0  0  0  0  0  0  0  0  0  0  0
    7.1269    2.5396   43.6686 C   0  0  0  0  0  0  0  0  0  0  0  0
    7.5380    1.2535   43.2556 C   0  0  0  0  0  0  0  0  0  0  0  0
    8.7342    1.1188   42.5972 N   0  0  0  0  0  0  0  0  0  0  0  0
    9.1108   -0.1099   42.2329 C   0  0  0  0  0  0  0  0  0  0  0  0
   10.3180   -0.2669   41.6671 N   0  0  0  0  0  0  0  0  0  0  0  0
    3.9668    1.8237   45.2122 F   0  0  0  0  0  0  0  0  0  0  0  0
  2  3  1  0
  6  7  2  0
  5  9  1  0
  8 10  2  0
  6 10  1  0
 12 11  1  6
  5 12  1  0
  1 13  2  0
 12 13  1  0
  1 14  1  0
  3 14  2  0
 13 15  1  0
  2 15  1  0
  2 16  2  0
  1 17  1  0
 17 18  1  0
 18 19  2  0
  4 19  1  0
  4 20  2  0
 17 20  1  0
  9 21  2  0
  8 21  1  0
  7 22  1  0
  8 23  1  0
 22 23  2  0
 23 24  1  0
  9 25  1  0
 24 25  2  0
 25 26  1  0
  6 27  1  0
M  END
