7PUV_84Z_A_304
     RDKit          3D

 24 25  0  0  0  0  0  0  0  0999 V2000
    2.5609   12.1232  -37.2670 O   0  0  0  0  0  0  0  0  0  0  0  0
    3.9035   12.2239  -38.0022 S   0  0  1  0  0  6  0  0  0  0  0  0
    3.4843   12.1202  -39.4722 O   0  0  0  0  0  0  0  0  0  0  0  0
    4.6723   13.7284  -37.6910 C   0  0  0  0  0  0  0  0  0  0  0  0
    4.4452   14.5874  -36.6516 C   0  0  0  0  0  0  0  0  0  0  0  0
    5.1188   15.7765  -36.4639 C   0  0  0  0  0  0  0  0  0  0  0  0
    6.0833   16.1422  -37.3663 C   0  0  0  0  0  0  0  0  0  0  0  0
    6.3551   15.3073  -38.4422 C   0  0  0  0  0  0  0  0  0  0  0  0
    5.6684   14.1349  -38.5981 C   0  0  0  0  0  0  0  0  0  0  0  0
    4.8043   10.8052  -37.6082 C   0  0  0  0  0  0  0  0  0  0  0  0
    4.6360   10.2771  -36.3206 C   0  0  0  0  0  0  0  0  0  0  0  0
    5.6277   10.1052  -38.4408 C   0  0  0  0  0  0  0  0  0  0  0  0
    5.9351   10.5673  -39.7721 C   0  0  0  0  0  0  0  0  0  0  0  0
    5.3259    9.9162  -40.8653 O   0  0  0  0  0  0  0  0  0  0  0  0
    5.8200   10.1312  -42.1957 C   0  0  0  0  0  0  0  0  0  0  0  0
    6.6963   11.5005  -40.0859 O   0  0  0  0  0  0  0  0  0  0  0  0
    6.2512    8.9295  -38.0049 C   0  0  0  0  0  0  0  0  0  0  0  0
    6.0755    8.4239  -36.7398 C   0  0  0  0  0  0  0  0  0  0  0  0
    5.2478    9.1259  -35.8941 C   0  0  0  0  0  0  0  0  0  0  0  0
    4.9991    8.5091  -34.2633 Cl  0  0  0  0  0  0  0  0  0  0  0  0
    6.8406    6.9715  -36.1891 S   0  0  2  0  0  6  0  0  0  0  0  0
    5.8287    5.9079  -35.8202 O   0  0  0  0  0  0  0  0  0  0  0  0
    7.6711    7.1822  -34.9548 O   0  0  0  0  0  0  0  0  0  0  0  0
    7.8671    6.2780  -37.3933 N   0  0  0  0  0  0  0  0  0  0  0  0
  1  2  2  0
  2  3  2  0
  2  4  1  6
  4  5  2  0
  5  6  1  0
  6  7  2  0
  7  8  1  0
  8  9  2  0
  4  9  1  0
  2 10  1  0
 10 11  2  0
 10 12  1  0
 12 13  1  0
 13 14  1  0
 15 14  1  6
 13 16  2  0
 12 17  2  0
 17 18  1  0
 11 19  1  0
 18 19  2  0
 19 20  1  0
 18 21  1  0
 21 22  2  0
 21 23  2  0
 21 24  1  6
M  END
$$$$
