1R1H_BIR_A_2001
     RDKit          3D

 56 57  0  0  0  0  0  0  0  0999 V2000
   23.2779   42.5683   37.5355 C   0  0  2  0  0  0  0  0  0  0  0  0
   24.3621   41.8907   36.6978 C   0  0  2  0  0  0  0  0  0  0  0  0
   24.9374   40.7703   37.4420 N   0  0  0  0  0  0  0  0  0  0  0  0
   25.6632   43.0879   36.2217 P   0  0  1  0  0  5  0  0  0  0  0  0
   25.2758   43.7612   34.9232 O   0  0  0  0  0  0  0  0  0  0  0  0
   25.8029   44.2523   37.4434 O   0  0  0  0  0  0  0  0  0  0  0  0
   27.2583   42.2159   36.0245 C   0  0  1  0  0  0  0  0  0  0  0  0
   28.4660   43.1089   36.3731 C   0  0  2  0  0  0  0  0  0  0  0  0
   28.6490   44.2065   35.3492 C   0  0  0  0  0  0  0  0  0  0  0  0
   28.4568   45.4047   35.6936 O   0  0  0  0  0  0  0  0  0  0  0  0
   29.0356   43.8988   34.0003 N   0  0  0  0  0  0  0  0  0  0  0  0
   29.6821   44.8864   33.1335 C   0  0  1  0  0  0  0  0  0  0  0  0
   30.8718   44.2589   32.4030 C   0  0  1  0  0  0  0  0  0  0  0  0
   28.6870   45.4260   32.1475 C   0  0  0  0  0  0  0  0  0  0  0  0
   28.6037   44.8712   30.8742 O   0  0  0  0  0  0  0  0  0  0  0  0
   27.9217   46.3748   32.4712 O   0  0  0  0  0  0  0  0  0  0  0  0
   29.7441   42.2538   36.5108 C   0  0  1  0  0  0  0  0  0  0  0  0
   30.9665   43.1033   36.7569 C   0  0  0  0  0  0  0  0  0  0  0  0
   31.1624   43.7141   38.0041 C   0  0  0  0  0  0  0  0  0  0  0  0
   32.2758   44.5297   38.2243 C   0  0  0  0  0  0  0  0  0  0  0  0
   33.2119   44.7525   37.1985 C   0  0  0  0  0  0  0  0  0  0  0  0
   33.0071   44.1444   35.9472 C   0  0  0  0  0  0  0  0  0  0  0  0
   31.8927   43.3307   35.7276 C   0  0  0  0  0  0  0  0  0  0  0  0
   34.3956   45.6184   37.4313 C   0  0  0  0  0  0  0  0  0  0  0  0
   34.5698   46.2748   38.6645 C   0  0  0  0  0  0  0  0  0  0  0  0
   35.6855   47.0895   38.8815 C   0  0  0  0  0  0  0  0  0  0  0  0
   36.6380   47.2569   37.8739 C   0  0  0  0  0  0  0  0  0  0  0  0
   36.4768   46.6107   36.6465 C   0  0  0  0  0  0  0  0  0  0  0  0
   35.3622   45.7960   36.4233 C   0  0  0  0  0  0  0  0  0  0  0  0
   22.3132   42.0325   37.4070 H   0  0  0  0  0  0  0  0  0  0  0  0
   23.1350   43.6198   37.2083 H   0  0  0  0  0  0  0  0  0  0  0  0
   23.5511   42.5571   38.6127 H   0  0  0  0  0  0  0  0  0  0  0  0
   23.8939   41.4997   35.7688 H   0  0  0  0  0  0  0  0  0  0  0  0
   24.5463   40.7775   38.4118 H   0  0  0  0  0  0  0  0  0  0  0  0
   24.6441   39.8708   36.9945 H   0  0  0  0  0  0  0  0  0  0  0  0
   26.7042   44.1146   37.8297 H   0  0  0  0  0  0  0  0  0  0  0  0
   27.2420   41.3369   36.7037 H   0  0  0  0  0  0  0  0  0  0  0  0
   27.3411   41.8385   34.9839 H   0  0  0  0  0  0  0  0  0  0  0  0
   28.2712   43.5723   37.3663 H   0  0  0  0  0  0  0  0  0  0  0  0
   28.7813   42.9670   33.6018 H   0  0  0  0  0  0  0  0  0  0  0  0
   30.0756   45.7216   33.7549 H   0  0  0  0  0  0  0  0  0  0  0  0
   31.8006   44.3535   33.0066 H   0  0  0  0  0  0  0  0  0  0  0  0
   30.6762   43.1825   32.2080 H   0  0  0  0  0  0  0  0  0  0  0  0
   31.0259   44.7702   31.4285 H   0  0  0  0  0  0  0  0  0  0  0  0
   29.2594   45.1361   30.1487 H   0  0  0  0  0  0  0  0  0  0  0  0
   29.6249   41.5503   37.3642 H   0  0  0  0  0  0  0  0  0  0  0  0
   29.8888   41.6247   35.6053 H   0  0  0  0  0  0  0  0  0  0  0  0
   30.4517   43.5584   38.8064 H   0  0  0  0  0  0  0  0  0  0  0  0
   32.4123   44.9741   39.2022 H   0  0  0  0  0  0  0  0  0  0  0  0
   33.6983   44.3147   35.1312 H   0  0  0  0  0  0  0  0  0  0  0  0
   31.7484   42.8842   34.7516 H   0  0  0  0  0  0  0  0  0  0  0  0
   33.8351   46.1724   39.4536 H   0  0  0  0  0  0  0  0  0  0  0  0
   35.8096   47.5940   39.8311 H   0  0  0  0  0  0  0  0  0  0  0  0
   37.5012   47.8875   38.0447 H   0  0  0  0  0  0  0  0  0  0  0  0
   37.2177   46.7380   35.8677 H   0  0  0  0  0  0  0  0  0  0  0  0
   35.2656   45.2913   35.4703 H   0  0  0  0  0  0  0  0  0  0  0  0
  2  1  1  0
  2  3  1  0
  2  4  1  0
  4  5  2  0
  4  6  1  1
  4  7  1  0
  8  7  1  0
  8  9  1  0
  9 10  2  0
  9 11  1  0
 11 12  1  0
 12 13  1  0
 12 14  1  0
 14 15  1  0
 14 16  2  0
  8 17  1  0
 17 18  1  0
 18 19  2  0
 19 20  1  0
 20 21  2  0
 21 22  1  0
 18 23  1  0
 22 23  2  0
 21 24  1  0
 24 25  2  0
 25 26  1  0
 26 27  2  0
 27 28  1  0
 24 29  1  0
 28 29  2  0
  1 30  1  1
  1 31  1  0
  1 32  1  0
  2 33  1  6
  3 34  1  0
  3 35  1  0
  6 36  1  0
  7 37  1  1
  7 38  1  0
  8 39  1  1
 11 40  1  0
 12 41  1  1
 13 42  1  1
 13 43  1  0
 13 44  1  0
 15 45  1  0
 17 46  1  1
 17 47  1  0
 19 48  1  0
 20 49  1  0
 22 50  1  0
 23 51  1  0
 25 52  1  0
 26 53  1  0
 27 54  1  0
 28 55  1  0
 29 56  1  0
M  END
