1JD0_AZM_B_2401
     RDKit          3D

 13 13  0  0  0  0  0  0  0  0999 V2000
   13.1997    4.7365   27.0657 C   0  0  0  0  0  0  0  0  0  0  0  0
   14.4596    6.4577   26.3092 C   0  0  0  0  0  0  0  0  0  0  0  0
   15.4638    7.7877   24.4721 C   0  0  0  0  0  0  0  0  0  0  0  0
   14.8014    6.9046   23.4314 C   0  0  0  0  0  0  0  0  0  0  0  0
   13.0186    2.3504   28.2174 N   0  0  0  0  0  0  0  0  0  0  0  0
   14.4786    6.4119   27.6001 N   0  0  0  0  0  0  0  0  0  0  0  0
   13.7212    5.3734   28.0676 N   0  0  0  0  0  0  0  0  0  0  0  0
   15.2103    7.4783   25.8023 N   0  0  0  0  0  0  0  0  0  0  0  0
   11.8965    2.7326   25.9960 O   0  0  0  0  0  0  0  0  0  0  0  0
   10.8928    3.7803   27.8941 O   0  0  0  0  0  0  0  0  0  0  0  0
   16.1860    8.7027   24.0706 O   0  0  0  0  0  0  0  0  0  0  0  0
   12.1531    3.3271   27.3087 S   0  0  2  0  0  0  0  0  0  0  0  0
   13.5488    5.2939   25.4981 S   0  0  0  0  0  0  0  0  0  0  0  0
  3  4  1  0
  2  6  2  0
  1  7  2  0
  6  7  1  0
  2  8  1  0
  3  8  1  0
  3 11  2  0
  1 12  1  0
 12  5  1  1
  9 12  2  0
 10 12  2  0
  1 13  1  0
  2 13  1  0
M  END
