6Z2C_Q5E_C_201
     RDKit          3D

 39 41  0  0  0  0  0  0  0  0999 V2000
   -0.0854    0.0003    0.3914 O   0  0  0  0  0  0  0  0  0  0  0  0
   -0.8528   -0.4806    1.2671 C   0  0  0  0  0  0  0  0  0  0  0  0
   -0.8214   -1.9129    1.7136 C   0  0  1  0  0  0  0  0  0  0  0  0
    0.4153   -2.3186    2.5696 C   0  0  1  0  0  0  0  0  0  0  0  0
   -0.1741   -3.4072    3.4762 C   0  0  2  0  0  0  0  0  0  0  0  0
    0.9820   -4.0320    4.7150 Cl  0  0  0  0  0  0  0  0  0  0  0  0
   -0.8395   -4.8378    2.6025 Cl  0  0  0  0  0  0  0  0  0  0  0  0
    1.8483   -2.8068    1.6202 Cl  0  0  0  0  0  0  0  0  0  0  0  0
    0.6594   -1.2348    3.6006 C   0  0  0  0  0  0  0  0  0  0  0  0
    2.0214   -0.1243    3.6709 Cl  0  0  0  0  0  0  0  0  0  0  0  0
   -0.3347   -1.3145    4.4883 C   0  0  0  0  0  0  0  0  0  0  0  0
   -0.5118   -0.3276    5.9331 Cl  0  0  0  0  0  0  0  0  0  0  0  0
   -1.2326   -2.4506    4.0410 C   0  0  2  0  0  0  0  0  0  0  0  0
   -2.2852   -3.1379    5.3108 Cl  0  0  0  0  0  0  0  0  0  0  0  0
   -1.9815   -2.0059    2.7493 C   0  0  1  0  0  0  0  0  0  0  0  0
   -2.5478   -0.6165    2.7799 C   0  0  0  0  0  0  0  0  0  0  0  0
   -3.5412   -0.2768    3.4761 O   0  0  0  0  0  0  0  0  0  0  0  0
   -1.8514    0.2821    1.9288 N   0  0  0  0  0  0  0  0  0  0  0  0
   -2.2803    1.6308    1.5668 C   0  0  0  0  0  0  0  0  0  0  0  0
   -1.6141    2.6608    2.4865 C   0  0  0  0  0  0  0  0  0  0  0  0
   -0.7521    2.0165    3.5868 C   0  0  0  0  0  0  0  0  0  0  0  0
    0.2537    0.9625    3.0892 C   0  0  0  0  0  0  0  0  0  0  0  0
   -0.1802    0.2928    1.7792 C   0  0  0  0  0  0  0  0  0  0  0  0
   -1.4802   -0.4234    1.9655 C   0  0  0  0  0  0  0  0  0  0  0  0
   -1.5131   -1.8143    1.9483 O   0  0  0  0  0  0  0  0  0  0  0  0
   -2.5491    0.2308    2.0979 O   0  0  0  0  0  0  0  0  0  0  0  0
   -0.9844   -2.5968    0.8518 H   0  0  0  0  0  0  0  0  0  0  0  0
   -2.7560   -2.7389    2.4337 H   0  0  0  0  0  0  0  0  0  0  0  0
   -2.0094    1.8339    0.5080 H   0  0  0  0  0  0  0  0  0  0  0  0
   -3.3852    1.6928    1.6567 H   0  0  0  0  0  0  0  0  0  0  0  0
   -1.0078    3.3700    1.8847 H   0  0  0  0  0  0  0  0  0  0  0  0
   -2.4094    3.2575    2.9843 H   0  0  0  0  0  0  0  0  0  0  0  0
   -1.4225    1.5402    4.3351 H   0  0  0  0  0  0  0  0  0  0  0  0
   -0.1964    2.8210    4.1161 H   0  0  0  0  0  0  0  0  0  0  0  0
    1.2256    1.4782    2.9237 H   0  0  0  0  0  0  0  0  0  0  0  0
    0.4245    0.1932    3.8719 H   0  0  0  0  0  0  0  0  0  0  0  0
    0.5961   -0.4300    1.4455 H   0  0  0  0  0  0  0  0  0  0  0  0
   -0.3131    1.0568    0.9847 H   0  0  0  0  0  0  0  0  0  0  0  0
   -2.3873   -2.3145    2.0568 H   0  0  0  0  0  0  0  0  0  0  0  0
  1  2  2  0
  3  2  1  0
  3  4  1  0
  4  5  1  0
  5  6  1  1
  5  7  1  0
  4  8  1  6
  4  9  1  0
  9 10  1  0
  9 11  2  0
 11 12  1  0
  5 13  1  0
 11 13  1  0
 13 14  1  1
 13 15  1  0
  3 15  1  0
 15 16  1  0
 16 17  2  0
 16 18  1  0
  2 18  1  0
 18 19  1  0
 19 20  1  0
 20 21  1  0
 21 22  1  0
 22 23  1  0
 23 24  1  0
 24 25  1  0
 24 26  2  0
  3 27  1  6
 15 28  1  6
 19 29  1  0
 19 30  1  0
 20 31  1  0
 20 32  1  0
 21 33  1  0
 21 34  1  0
 22 35  1  0
 22 36  1  0
 23 37  1  0
 23 38  1  0
 25 39  1  0
M  END
