6Z4N_Q7B_BBB_402
     RDKit          3D

 20 22  0  0  0  0  0  0  0  0999 V2000
    5.6670   11.8647   21.4596 C   0  0  0  0  0  0  0  0  0  0  0  0
    6.6996   11.7754   20.5290 C   0  0  0  0  0  0  0  0  0  0  0  0
    6.6949   10.7905   19.5710 C   0  0  0  0  0  0  0  0  0  0  0  0
    7.7562   10.6291   18.5466 C   0  0  0  0  0  0  0  0  0  0  0  0
    5.6380    9.9051   19.5697 C   0  0  0  0  0  0  0  0  0  0  0  0
    4.6153    9.9993   20.4963 C   0  0  0  0  0  0  0  0  0  0  0  0
    4.6036   10.9958   21.4781 C   0  0  0  0  0  0  0  0  0  0  0  0
    3.4749   11.0569   22.4232 C   0  0  0  0  0  0  0  0  0  0  0  0
    2.3876   12.0373   22.0608 C   0  0  1  0  0  0  0  0  0  0  0  0
    1.7748   11.8952   20.7251 C   0  0  0  0  0  0  0  0  0  0  0  0
    1.1125   10.7958   20.2402 O   0  0  0  0  0  0  0  0  0  0  0  0
    1.8619   12.8922   19.9234 O   0  0  0  0  0  0  0  0  0  0  0  0
    1.4024   12.4221   23.1513 C   0  0  0  0  0  0  0  0  0  0  0  0
    2.4278   13.4268   22.5644 C   0  0  1  0  0  0  0  0  0  0  0  0
    3.3200   13.9496   23.5823 C   0  0  0  0  0  0  0  0  0  0  0  0
    3.4314   13.5121   24.8809 C   0  0  0  0  0  0  0  0  0  0  0  0
    4.3073   14.0852   25.7974 C   0  0  0  0  0  0  0  0  0  0  0  0
    5.1197   15.1395   25.4346 C   0  0  0  0  0  0  0  0  0  0  0  0
    5.0223   15.5908   24.1380 C   0  0  0  0  0  0  0  0  0  0  0  0
    4.1525   15.0205   23.2316 C   0  0  0  0  0  0  0  0  0  0  0  0
  1  2  2  0
  2  3  1  0
  3  4  1  0
  3  5  2  0
  5  6  1  0
  6  7  2  0
  1  7  1  0
  7  8  1  0
  9  8  1  1
  9 10  1  0
 10 11  1  0
 10 12  2  0
  9 13  1  0
 13 14  1  0
  9 14  1  0
 14 15  1  1
 15 16  2  0
 16 17  1  0
 17 18  2  0
 18 19  1  0
 19 20  2  0
 15 20  1  0
M  END
$$$$
