7FHA_ADX_A_1001
     RDKit          3D

 41 43  0  0  0  0  0  0  0  0999 V2000
   -8.5591    1.1869   -0.5097 S   0  0  1  0  0  6  0  0  0  0  0  0
   -7.6358    1.3817   -1.3695 O   0  0  0  0  0  0  0  0  0  0  0  0
   -9.5920    1.8581   -0.8650 O   0  0  0  0  0  0  0  0  0  0  0  0
   -8.8320   -0.0538   -0.3489 O   0  0  0  0  0  0  0  0  0  0  0  0
   -8.1943    1.4068    2.2372 P   0  0  1  0  0  5  0  0  0  0  0  0
   -7.8305    2.5051    2.9453 O   0  0  0  0  0  0  0  0  0  0  0  0
   -9.4429    0.8545    2.4301 O   0  0  0  0  0  0  0  0  0  0  0  0
   -8.1170    1.8137    0.7467 O   0  0  0  0  0  0  0  0  0  0  0  0
   -7.1029    0.3329    2.4291 O   0  0  0  0  0  0  0  0  0  0  0  0
   -7.2057   -1.0123    2.0684 C   0  0  0  0  0  0  0  0  0  0  0  0
   -7.4030   -1.2738    0.5707 C   0  0  2  0  0  0  0  0  0  0  0  0
   -6.6092   -0.4518   -0.2289 O   0  0  0  0  0  0  0  0  0  0  0  0
   -8.8490   -0.9704    0.1304 C   0  0  2  0  0  0  0  0  0  0  0  0
   -9.1970   -1.8153   -0.8995 O   0  0  0  0  0  0  0  0  0  0  0  0
   -8.7882    0.4735   -0.2828 C   0  0  2  0  0  0  0  0  0  0  0  0
   -9.7591    0.8776   -1.1783 O   0  0  0  0  0  0  0  0  0  0  0  0
   -7.4220    0.4515   -0.9188 C   0  0  1  0  0  0  0  0  0  0  0  0
   -6.5995    1.6300   -1.0461 N   0  0  0  0  0  4  0  0  0  0  0  0
   -5.3685    1.6743   -1.3831 C   0  0  0  0  0  0  0  0  0  0  0  0
   -4.9559    2.8916   -1.4967 N   0  0  0  0  0  0  0  0  0  0  0  0
   -5.9651    3.6870   -1.2613 C   0  0  0  0  0  0  0  0  0  0  0  0
   -6.2227    5.1174   -1.2278 C   0  0  0  0  0  0  0  0  0  0  0  0
   -5.2569    5.9974   -1.5073 N   0  0  0  0  0  0  0  0  0  0  0  0
   -7.4564    5.5109   -0.9038 N   0  0  0  0  0  0  0  0  0  0  0  0
   -8.4290    4.6745   -0.6382 C   0  0  0  0  0  0  0  0  0  0  0  0
   -8.2654    3.3662   -0.6482 N   0  0  0  0  0  0  0  0  0  0  0  0
   -7.0841    2.8251   -0.9640 C   0  0  0  0  0  0  0  0  0  0  0  0
   -9.1189   -0.4339   -1.1938 H   0  0  0  0  0  0  0  0  0  0  0  0
  -10.1210    1.5372    2.3072 H   0  0  0  0  0  0  0  0  0  0  0  0
   -6.3077   -1.5067    2.3752 H   0  0  0  0  0  0  0  0  0  0  0  0
   -8.0848   -1.3829    2.5528 H   0  0  0  0  0  0  0  0  0  0  0  0
   -7.1445   -2.3043    0.4437 H   0  0  0  0  0  0  0  0  0  0  0  0
   -9.5917   -1.1242    0.8852 H   0  0  0  0  0  0  0  0  0  0  0  0
   -8.5573   -1.7238   -1.6229 H   0  0  0  0  0  0  0  0  0  0  0  0
   -8.9527    1.1620    0.5195 H   0  0  0  0  0  0  0  0  0  0  0  0
   -9.7189    0.3211   -1.9718 H   0  0  0  0  0  0  0  0  0  0  0  0
   -7.7194    0.2273   -1.9219 H   0  0  0  0  0  0  0  0  0  0  0  0
   -4.7789    0.8426   -1.5440 H   0  0  0  0  0  0  0  0  0  0  0  0
   -4.3553    5.6804   -1.7434 H   0  0  0  0  0  0  0  0  0  0  0  0
   -5.4470    6.9629   -1.4770 H   0  0  0  0  0  0  0  0  0  0  0  0
   -9.3612    5.0551   -0.4121 H   0  0  0  0  0  0  0  0  0  0  0  0
  1  2  2  0
  1  3  2  0
  1  4  1  6
  5  6  2  0
  5  7  1  6
  1  8  1  0
  5  8  1  0
  5  9  1  0
  9 10  1  0
 11 10  1  0
 11 12  1  0
 11 13  1  0
 13 14  1  0
 13 15  1  0
 15 16  1  0
 12 17  1  0
 15 17  1  0
 17 18  1  0
 18 19  4  0
 19 20  4  0
 20 21  4  0
 21 22  4  0
 22 23  1  0
 22 24  4  0
 24 25  4  0
 25 26  4  0
 18 27  4  0
 21 27  4  0
 26 27  4  0
  4 28  1  0
  7 29  1  0
 10 30  1  0
 10 31  1  0
 11 32  1  6
 13 33  1  6
 14 34  1  0
 15 35  1  6
 16 36  1  0
 17 37  1  1
 19 38  1  0
 23 39  1  0
 23 40  1  0
 25 41  1  0
M  CHG  1  18   1
M  END
