1UML_FR4_A_1001
     RDKit          3D

 33 36  0  0  0  0  0  0  0  0999 V2000
   49.3304   53.0616   19.2077 C   0  0  0  0  0  0  0  0  0  0  0  0
   49.2208   52.4269   17.9970 N   0  0  0  0  0  0  0  0  0  0  0  0
   50.4769   52.1886   17.6408 C   0  0  0  0  0  0  0  0  0  0  0  0
   51.3529   52.6434   18.5686 N   0  0  0  0  0  0  0  0  0  0  0  0
   50.6421   53.1947   19.5590 C   0  0  0  0  0  0  0  0  0  0  0  0
   51.1633   53.8136   20.7709 C   0  0  0  0  0  0  0  0  0  0  0  0
   52.4155   53.8909   20.9226 O   0  0  0  0  0  0  0  0  0  0  0  0
   50.2833   54.3214   21.7646 N   0  0  0  0  0  0  0  0  0  0  0  0
   47.9417   52.1703   17.4129 C   0  0  1  0  0  0  0  0  0  0  0  0
   47.0196   51.4215   18.3788 C   0  0  0  0  0  0  0  0  0  0  0  0
   47.6734   50.2821   18.8416 O   0  0  0  0  0  0  0  0  0  0  0  0
   47.2186   53.3922   16.9888 C   0  0  0  0  0  0  0  0  0  0  0  0
   47.9494   54.3123   16.0473 C   0  0  0  0  0  0  0  0  0  0  0  0
   47.0964   55.4649   15.8584 N   0  0  0  0  0  0  0  0  0  0  0  0
   46.1296   55.7495   15.0010 C   0  0  0  0  0  0  0  0  0  0  0  0
   45.5989   57.0221   15.2355 C   0  0  0  0  0  0  0  0  0  0  0  0
   46.3053   57.5171   16.3060 C   0  0  0  0  0  0  0  0  0  0  0  0
   47.2178   56.5580   16.6792 C   0  0  0  0  0  0  0  0  0  0  0  0
   46.1895   58.7279   16.9467 C   0  0  0  0  0  0  0  0  0  0  0  0
   47.0534   58.9655   18.0236 C   0  0  0  0  0  0  0  0  0  0  0  0
   47.9830   58.0468   18.4405 C   0  0  0  0  0  0  0  0  0  0  0  0
   48.0380   56.8555   17.7471 C   0  0  0  0  0  0  0  0  0  0  0  0
   48.8807   58.2214   19.5140 N   0  0  0  0  0  0  0  0  0  0  0  0
   48.9154   59.3232   20.3982 C   0  0  0  0  0  0  0  0  0  0  0  0
   48.1829   60.3240   20.2549 O   0  0  0  0  0  0  0  0  0  0  0  0
   49.8484   59.3367   21.5644 C   0  0  0  0  0  0  0  0  0  0  0  0
   49.7267   60.6046   22.3520 C   0  0  0  0  0  0  0  0  0  0  0  0
   51.8581   59.7962   23.4239 C   0  0  0  0  0  0  0  0  0  0  0  0
   50.8450   60.7282   23.2991 C   0  0  0  0  0  0  0  0  0  0  0  0
   50.8739   61.8600   24.1163 C   0  0  0  0  0  0  0  0  0  0  0  0
   51.8722   62.0709   25.0325 C   0  0  0  0  0  0  0  0  0  0  0  0
   52.8911   61.1397   25.1623 C   0  0  0  0  0  0  0  0  0  0  0  0
   52.8475   60.0292   24.3487 C   0  0  0  0  0  0  0  0  0  0  0  0
  1  2  1  0
  2  3  1  0
  3  4  2  0
  1  5  2  0
  4  5  1  0
  5  6  1  0
  6  7  2  0
  6  8  1  0
  2  9  1  0
  9 10  1  1
 10 11  1  0
  9 12  1  0
 12 13  1  0
 13 14  1  0
 14 15  1  0
 15 16  2  0
 16 17  1  0
 14 18  1  0
 17 18  2  0
 17 19  1  0
 19 20  2  0
 20 21  1  0
 18 22  1  0
 21 22  2  0
 21 23  1  0
 23 24  1  0
 24 25  2  0
 24 26  1  0
 26 27  1  0
 27 29  1  0
 28 29  2  0
 29 30  1  0
 30 31  2  0
 31 32  1  0
 28 33  1  0
 32 33  2  0
M  END
$$$$
