1UML_FR4_A_1001
     RDKit          3D

 33 36  0  0  0  0  0  0  0  0999 V2000
   60.3047   41.1818   -1.1327 C   0  0  0  0  0  0  0  0  0  0  0  0
   60.5664   42.4502   -1.5836 N   0  0  0  0  0  0  0  0  0  0  0  0
   61.6613   42.3128   -2.3211 C   0  0  0  0  0  0  0  0  0  0  0  0
   62.0863   41.0268   -2.3473 N   0  0  0  0  0  0  0  0  0  0  0  0
   61.2398   40.3065   -1.6027 C   0  0  0  0  0  0  0  0  0  0  0  0
   61.3029   38.8737   -1.3445 C   0  0  0  0  0  0  0  0  0  0  0  0
   60.3626   38.3318   -0.6971 O   0  0  0  0  0  0  0  0  0  0  0  0
   62.3990   38.0983   -1.8103 N   0  0  0  0  0  0  0  0  0  0  0  0
   59.7243   43.5480   -1.2249 C   0  0  1  0  0  0  0  0  0  0  0  0
   60.4624   44.8849   -1.3332 C   0  0  0  0  0  0  0  0  0  0  0  0
   61.5377   44.8845   -0.4480 O   0  0  0  0  0  0  0  0  0  0  0  0
   58.5019   43.6639   -2.0544 C   0  0  0  0  0  0  0  0  0  0  0  0
   57.1866   43.5203   -1.3356 C   0  0  0  0  0  0  0  0  0  0  0  0
   56.1553   43.6502   -2.3414 N   0  0  0  0  0  0  0  0  0  0  0  0
   56.1763   43.9353   -3.6333 C   0  0  0  0  0  0  0  0  0  0  0  0
   54.8870   43.9393   -4.1753 C   0  0  0  0  0  0  0  0  0  0  0  0
   54.0525   43.6348   -3.1260 C   0  0  0  0  0  0  0  0  0  0  0  0
   54.8372   43.4600   -2.0100 C   0  0  0  0  0  0  0  0  0  0  0  0
   52.6838   43.5081   -3.1044 C   0  0  0  0  0  0  0  0  0  0  0  0
   52.0918   43.1860   -1.8763 C   0  0  0  0  0  0  0  0  0  0  0  0
   52.8232   43.0000   -0.7307 C   0  0  0  0  0  0  0  0  0  0  0  0
   54.1913   43.1444   -0.8332 C   0  0  0  0  0  0  0  0  0  0  0  0
   52.2923   42.6751    0.5347 N   0  0  0  0  0  0  0  0  0  0  0  0
   51.0096   43.0255    1.0132 C   0  0  0  0  0  0  0  0  0  0  0  0
   50.2268   43.7536    0.3682 O   0  0  0  0  0  0  0  0  0  0  0  0
   50.5271   42.5296    2.3367 C   0  0  0  0  0  0  0  0  0  0  0  0
   49.1513   43.0340    2.6453 C   0  0  0  0  0  0  0  0  0  0  0  0
   48.1257   44.9956    3.8475 C   0  0  0  0  0  0  0  0  0  0  0  0
   49.2241   44.2386    3.4857 C   0  0  0  0  0  0  0  0  0  0  0  0
   50.4849   44.6314    3.9394 C   0  0  0  0  0  0  0  0  0  0  0  0
   50.6622   45.7391    4.7281 C   0  0  0  0  0  0  0  0  0  0  0  0
   49.5643   46.5024    5.0943 C   0  0  0  0  0  0  0  0  0  0  0  0
   48.3280   46.1011    4.6384 C   0  0  0  0  0  0  0  0  0  0  0  0
  1  2  1  0
  2  3  1  0
  3  4  2  0
  1  5  2  0
  4  5  1  0
  5  6  1  0
  6  7  2  0
  6  8  1  0
  2  9  1  0
  9 10  1  6
 10 11  1  0
  9 12  1  0
 12 13  1  0
 13 14  1  0
 14 15  1  0
 15 16  2  0
 16 17  1  0
 14 18  1  0
 17 18  2  0
 17 19  1  0
 19 20  2  0
 20 21  1  0
 18 22  1  0
 21 22  2  0
 21 23  1  0
 23 24  1  0
 24 25  2  0
 24 26  1  0
 26 27  1  0
 27 29  1  0
 28 29  2  0
 29 30  1  0
 30 31  2  0
 31 32  1  0
 28 33  1  0
 32 33  2  0
M  END
$$$$
