1UML_FR4_A_1001
     RDKit          3D

 33 36  0  0  0  0  0  0  0  0999 V2000
   42.4266   61.5716   19.7916 C   0  0  0  0  0  0  0  0  0  0  0  0
   41.6000   62.2612   18.9421 N   0  0  0  0  0  0  0  0  0  0  0  0
   41.1451   61.3340   18.1084 C   0  0  0  0  0  0  0  0  0  0  0  0
   41.6486   60.1109   18.4007 N   0  0  0  0  0  0  0  0  0  0  0  0
   42.4563   60.2488   19.4583 C   0  0  0  0  0  0  0  0  0  0  0  0
   43.2162   59.1976   20.1223 C   0  0  0  0  0  0  0  0  0  0  0  0
   43.1295   58.0160   19.6826 O   0  0  0  0  0  0  0  0  0  0  0  0
   44.0396   59.4921   21.2424 N   0  0  0  0  0  0  0  0  0  0  0  0
   41.4031   63.6694   19.0876 C   0  0  1  0  0  0  0  0  0  0  0  0
   41.4735   64.3917   17.7395 C   0  0  0  0  0  0  0  0  0  0  0  0
   42.6587   64.0422   17.0969 O   0  0  0  0  0  0  0  0  0  0  0  0
   40.1057   64.0346   19.7032 C   0  0  0  0  0  0  0  0  0  0  0  0
   39.9634   63.7671   21.1782 C   0  0  0  0  0  0  0  0  0  0  0  0
   38.6248   64.1780   21.5405 N   0  0  0  0  0  0  0  0  0  0  0  0
   38.0681   65.3547   21.7779 C   0  0  0  0  0  0  0  0  0  0  0  0
   36.7127   65.2222   22.0961 C   0  0  0  0  0  0  0  0  0  0  0  0
   36.4583   63.8723   22.0409 C   0  0  0  0  0  0  0  0  0  0  0  0
   37.6331   63.2431   21.7006 C   0  0  0  0  0  0  0  0  0  0  0  0
   35.2850   63.1927   22.2674 C   0  0  0  0  0  0  0  0  0  0  0  0
   35.3198   61.7982   22.1380 C   0  0  0  0  0  0  0  0  0  0  0  0
   36.4617   61.1166   21.8012 C   0  0  0  0  0  0  0  0  0  0  0  0
   37.5985   61.8690   21.5899 C   0  0  0  0  0  0  0  0  0  0  0  0
   36.5659   59.7179   21.6546 N   0  0  0  0  0  0  0  0  0  0  0  0
   35.4895   58.8156   21.4991 C   0  0  0  0  0  0  0  0  0  0  0  0
   34.2958   59.1726   21.5785 O   0  0  0  0  0  0  0  0  0  0  0  0
   35.7399   57.3684   21.2280 C   0  0  0  0  0  0  0  0  0  0  0  0
   34.4592   56.6049   21.0882 C   0  0  0  0  0  0  0  0  0  0  0  0
   35.9975   54.6114   21.0213 C   0  0  0  0  0  0  0  0  0  0  0  0
   34.7324   55.1652   20.9639 C   0  0  0  0  0  0  0  0  0  0  0  0
   33.6394   54.3167   20.7770 C   0  0  0  0  0  0  0  0  0  0  0  0
   33.7852   52.9591   20.6497 C   0  0  0  0  0  0  0  0  0  0  0  0
   35.0516   52.3976   20.7064 C   0  0  0  0  0  0  0  0  0  0  0  0
   36.1188   53.2487   20.8913 C   0  0  0  0  0  0  0  0  0  0  0  0
  1  2  1  0
  2  3  1  0
  3  4  2  0
  1  5  2  0
  4  5  1  0
  5  6  1  0
  6  7  2  0
  6  8  1  0
  2  9  1  0
  9 10  1  6
 10 11  1  0
  9 12  1  0
 12 13  1  0
 13 14  1  0
 14 15  1  0
 15 16  2  0
 16 17  1  0
 14 18  1  0
 17 18  2  0
 17 19  1  0
 19 20  2  0
 20 21  1  0
 18 22  1  0
 21 22  2  0
 21 23  1  0
 23 24  1  0
 24 25  2  0
 24 26  1  0
 26 27  1  0
 27 29  1  0
 28 29  2  0
 29 30  1  0
 30 31  2  0
 31 32  1  0
 28 33  1  0
 32 33  2  0
M  END
$$$$
