1UML_FR4_A_1001
     RDKit          3D

 33 36  0  0  0  0  0  0  0  0999 V2000
   48.8802   52.6027   17.4199 C   0  0  0  0  0  0  0  0  0  0  0  0
   47.5707   52.9353   17.1850 N   0  0  0  0  0  0  0  0  0  0  0  0
   47.4103   52.7230   15.8847 C   0  0  0  0  0  0  0  0  0  0  0  0
   48.5522   52.2775   15.3080 N   0  0  0  0  0  0  0  0  0  0  0  0
   49.4837   52.1981   16.2650 C   0  0  0  0  0  0  0  0  0  0  0  0
   50.8664   51.7661   16.1070 C   0  0  0  0  0  0  0  0  0  0  0  0
   51.2886   51.4948   14.9472 O   0  0  0  0  0  0  0  0  0  0  0  0
   51.7257   51.6512   17.2330 N   0  0  0  0  0  0  0  0  0  0  0  0
   46.7252   53.3915   18.2433 C   0  0  1  0  0  0  0  0  0  0  0  0
   46.3574   52.2556   19.2018 C   0  0  0  0  0  0  0  0  0  0  0  0
   47.4794   51.4587   19.4155 O   0  0  0  0  0  0  0  0  0  0  0  0
   47.3204   54.4712   19.0652 C   0  0  0  0  0  0  0  0  0  0  0  0
   48.0959   55.5286   18.3251 C   0  0  0  0  0  0  0  0  0  0  0  0
   48.7667   56.3224   19.3311 N   0  0  0  0  0  0  0  0  0  0  0  0
   48.4306   57.4120   20.0022 C   0  0  0  0  0  0  0  0  0  0  0  0
   49.4446   57.8005   20.8837 C   0  0  0  0  0  0  0  0  0  0  0  0
   50.4448   56.8723   20.7164 C   0  0  0  0  0  0  0  0  0  0  0  0
   50.0208   55.9734   19.7656 C   0  0  0  0  0  0  0  0  0  0  0  0
   51.6678   56.7817   21.3376 C   0  0  0  0  0  0  0  0  0  0  0  0
   52.4962   55.7156   20.9640 C   0  0  0  0  0  0  0  0  0  0  0  0
   52.1268   54.7890   20.0222 C   0  0  0  0  0  0  0  0  0  0  0  0
   50.8845   54.9477   19.4440 C   0  0  0  0  0  0  0  0  0  0  0  0
   52.9100   53.6946   19.6007 N   0  0  0  0  0  0  0  0  0  0  0  0
   53.9630   53.0961   20.3288 C   0  0  0  0  0  0  0  0  0  0  0  0
   54.3447   53.5272   21.4367 O   0  0  0  0  0  0  0  0  0  0  0  0
   54.6774   51.8991   19.7930 C   0  0  0  0  0  0  0  0  0  0  0  0
   55.7526   51.4360   20.7267 C   0  0  0  0  0  0  0  0  0  0  0  0
   55.6544   49.3412   19.3312 C   0  0  0  0  0  0  0  0  0  0  0  0
   56.1986   50.0826   20.3630 C   0  0  0  0  0  0  0  0  0  0  0  0
   57.2354   49.5235   21.1128 C   0  0  0  0  0  0  0  0  0  0  0  0
   57.7250   48.2687   20.8557 C   0  0  0  0  0  0  0  0  0  0  0  0
   57.1831   47.5202   19.8221 C   0  0  0  0  0  0  0  0  0  0  0  0
   56.1612   48.0864   19.0925 C   0  0  0  0  0  0  0  0  0  0  0  0
  1  2  1  0
  2  3  1  0
  3  4  2  0
  1  5  2  0
  4  5  1  0
  5  6  1  0
  6  7  2  0
  6  8  1  0
  2  9  1  0
  9 10  1  1
 10 11  1  0
  9 12  1  0
 12 13  1  0
 13 14  1  0
 14 15  1  0
 15 16  2  0
 16 17  1  0
 14 18  1  0
 17 18  2  0
 17 19  1  0
 19 20  2  0
 20 21  1  0
 18 22  1  0
 21 22  2  0
 21 23  1  0
 23 24  1  0
 24 25  2  0
 24 26  1  0
 26 27  1  0
 27 29  1  0
 28 29  2  0
 29 30  1  0
 30 31  2  0
 31 32  1  0
 28 33  1  0
 32 33  2  0
M  END
$$$$
