1UML_FR4_A_1001
     RDKit          3D

 33 36  0  0  0  0  0  0  0  0999 V2000
   61.9516   72.8421    7.1358 C   0  0  0  0  0  0  0  0  0  0  0  0
   61.1482   72.0319    7.8964 N   0  0  0  0  0  0  0  0  0  0  0  0
   61.6164   72.1767    9.1299 C   0  0  0  0  0  0  0  0  0  0  0  0
   62.6652   73.0333    9.1675 N   0  0  0  0  0  0  0  0  0  0  0  0
   62.8847   73.4580    7.9179 C   0  0  0  0  0  0  0  0  0  0  0  0
   63.9139   74.3915    7.4789 C   0  0  0  0  0  0  0  0  0  0  0  0
   63.9634   74.7094    6.2568 O   0  0  0  0  0  0  0  0  0  0  0  0
   64.8452   74.9353    8.4044 N   0  0  0  0  0  0  0  0  0  0  0  0
   60.0906   71.2759    7.3024 C   0  0  1  0  0  0  0  0  0  0  0  0
   58.9098   72.1682    6.9104 C   0  0  0  0  0  0  0  0  0  0  0  0
   58.3931   72.7691    8.0556 O   0  0  0  0  0  0  0  0  0  0  0  0
   60.4924   70.5351    6.0836 C   0  0  0  0  0  0  0  0  0  0  0  0
   59.4712   69.5932    5.5031 C   0  0  0  0  0  0  0  0  0  0  0  0
   59.9584   69.2190    4.1937 N   0  0  0  0  0  0  0  0  0  0  0  0
   61.1382   69.3126    3.6020 C   0  0  0  0  0  0  0  0  0  0  0  0
   61.0989   68.7966    2.3026 C   0  0  0  0  0  0  0  0  0  0  0  0
   59.8043   68.3710    2.1213 C   0  0  0  0  0  0  0  0  0  0  0  0
   59.1156   68.6335    3.2826 C   0  0  0  0  0  0  0  0  0  0  0  0
   59.2214   67.7842    1.0232 C   0  0  0  0  0  0  0  0  0  0  0  0
   57.8645   67.4505    1.1226 C   0  0  0  0  0  0  0  0  0  0  0  0
   57.1270   67.6883    2.2546 C   0  0  0  0  0  0  0  0  0  0  0  0
   57.7830   68.2802    3.3141 C   0  0  0  0  0  0  0  0  0  0  0  0
   55.7614   67.3784    2.4211 N   0  0  0  0  0  0  0  0  0  0  0  0
   55.0649   67.3234    3.6495 C   0  0  0  0  0  0  0  0  0  0  0  0
   55.6331   67.4669    4.7519 O   0  0  0  0  0  0  0  0  0  0  0  0
   53.5906   67.0867    3.6809 C   0  0  0  0  0  0  0  0  0  0  0  0
   53.0555   67.1322    5.0788 C   0  0  0  0  0  0  0  0  0  0  0  0
   51.9910   65.4999    6.6749 C   0  0  0  0  0  0  0  0  0  0  0  0
   52.3428   65.8852    5.3949 C   0  0  0  0  0  0  0  0  0  0  0  0
   52.0068   65.0481    4.3291 C   0  0  0  0  0  0  0  0  0  0  0  0
   51.3423   63.8632    4.5156 C   0  0  0  0  0  0  0  0  0  0  0  0
   50.9867   63.4712    5.7971 C   0  0  0  0  0  0  0  0  0  0  0  0
   51.3257   64.3084    6.8370 C   0  0  0  0  0  0  0  0  0  0  0  0
  1  2  1  0
  2  3  1  0
  3  4  2  0
  1  5  2  0
  4  5  1  0
  5  6  1  0
  6  7  2  0
  6  8  1  0
  2  9  1  0
  9 10  1  6
 10 11  1  0
  9 12  1  0
 12 13  1  0
 13 14  1  0
 14 15  1  0
 15 16  2  0
 16 17  1  0
 14 18  1  0
 17 18  2  0
 17 19  1  0
 19 20  2  0
 20 21  1  0
 18 22  1  0
 21 22  2  0
 21 23  1  0
 23 24  1  0
 24 25  2  0
 24 26  1  0
 26 27  1  0
 27 29  1  0
 28 29  2  0
 29 30  1  0
 30 31  2  0
 31 32  1  0
 28 33  1  0
 32 33  2  0
M  END
$$$$
