1UML_FR4_A_1001
     RDKit          3D

 33 36  0  0  0  0  0  0  0  0999 V2000
   55.1928   48.5951   21.0567 C   0  0  0  0  0  0  0  0  0  0  0  0
   56.2253   47.9396   21.6771 N   0  0  0  0  0  0  0  0  0  0  0  0
   55.6521   47.3377   22.7119 C   0  0  0  0  0  0  0  0  0  0  0  0
   54.3218   47.5888   22.7602 N   0  0  0  0  0  0  0  0  0  0  0  0
   54.0220   48.3791   21.7232 C   0  0  0  0  0  0  0  0  0  0  0  0
   52.7085   48.9047   21.3742 C   0  0  0  0  0  0  0  0  0  0  0  0
   52.5767   49.5364   20.2877 O   0  0  0  0  0  0  0  0  0  0  0  0
   51.5956   48.7124   22.2368 N   0  0  0  0  0  0  0  0  0  0  0  0
   57.5579   48.0131   21.1656 C   0  0  1  0  0  0  0  0  0  0  0  0
   57.9745   46.7066   20.4850 C   0  0  0  0  0  0  0  0  0  0  0  0
   57.2713   45.6500   21.0583 O   0  0  0  0  0  0  0  0  0  0  0  0
   57.7631   49.0972   20.1764 C   0  0  0  0  0  0  0  0  0  0  0  0
   57.1673   50.4377   20.5160 C   0  0  0  0  0  0  0  0  0  0  0  0
   57.3603   51.2766   19.3536 N   0  0  0  0  0  0  0  0  0  0  0  0
   58.3420   52.0710   18.9589 C   0  0  0  0  0  0  0  0  0  0  0  0
   58.0462   52.6763   17.7333 C   0  0  0  0  0  0  0  0  0  0  0  0
   56.8032   52.2023   17.3864 C   0  0  0  0  0  0  0  0  0  0  0  0
   56.3928   51.3479   18.3830 C   0  0  0  0  0  0  0  0  0  0  0  0
   56.0408   52.4758   16.2755 C   0  0  0  0  0  0  0  0  0  0  0  0
   54.7957   51.8405   16.1836 C   0  0  0  0  0  0  0  0  0  0  0  0
   54.3340   50.9788   17.1462 C   0  0  0  0  0  0  0  0  0  0  0  0
   55.1569   50.7556   18.2307 C   0  0  0  0  0  0  0  0  0  0  0  0
   53.0942   50.3076   17.1161 N   0  0  0  0  0  0  0  0  0  0  0  0
   51.9048   50.7842   16.5200 C   0  0  0  0  0  0  0  0  0  0  0  0
   51.8209   51.9146   15.9965 O   0  0  0  0  0  0  0  0  0  0  0  0
   50.6740   49.9388   16.4906 C   0  0  0  0  0  0  0  0  0  0  0  0
   49.5394   50.6418   15.8117 C   0  0  0  0  0  0  0  0  0  0  0  0
   48.2489   48.5755   16.4523 C   0  0  0  0  0  0  0  0  0  0  0  0
   48.3475   49.7808   15.7829 C   0  0  0  0  0  0  0  0  0  0  0  0
   47.2558   50.2181   15.0302 C   0  0  0  0  0  0  0  0  0  0  0  0
   46.0972   49.4905   14.9374 C   0  0  0  0  0  0  0  0  0  0  0  0
   45.9923   48.2808   15.6066 C   0  0  0  0  0  0  0  0  0  0  0  0
   47.0782   47.8640   16.3445 C   0  0  0  0  0  0  0  0  0  0  0  0
  1  2  1  0
  2  3  1  0
  3  4  2  0
  1  5  2  0
  4  5  1  0
  5  6  1  0
  6  7  2  0
  6  8  1  0
  2  9  1  0
  9 10  1  6
 10 11  1  0
  9 12  1  0
 12 13  1  0
 13 14  1  0
 14 15  1  0
 15 16  2  0
 16 17  1  0
 14 18  1  0
 17 18  2  0
 17 19  1  0
 19 20  2  0
 20 21  1  0
 18 22  1  0
 21 22  2  0
 21 23  1  0
 23 24  1  0
 24 25  2  0
 24 26  1  0
 26 27  1  0
 27 29  1  0
 28 29  2  0
 29 30  1  0
 30 31  2  0
 31 32  1  0
 28 33  1  0
 32 33  2  0
M  END
$$$$
