7RWO_7WN_A_3001
     RDKit          3D

 20 22  0  0  0  0  0  0  0  0999 V2000
    6.9296   -5.2430    2.7380 N   0  0  0  0  0  0  0  0  0  0  0  0
    8.3953   -5.1544    2.8113 C   0  0  0  0  0  0  0  0  0  0  0  0
    8.9280   -3.8589    2.2282 C   0  0  0  0  0  0  0  0  0  0  0  0
    8.1492   -2.6583    2.6408 C   0  0  0  0  0  0  0  0  0  0  0  0
    8.7425   -1.3742    2.4373 C   0  0  0  0  0  0  0  0  0  0  0  0
    8.0743   -0.2337    2.8276 C   0  0  0  0  0  0  0  0  0  0  0  0
    7.7271    1.7785    5.4253 C   0  0  0  0  0  0  0  0  0  0  0  0
    5.9017    3.6646    6.1585 C   0  0  0  0  0  0  0  0  0  0  0  0
    5.5545    2.7733    5.1501 C   0  0  0  0  0  0  0  0  0  0  0  0
    6.5013    1.8082    4.7748 C   0  0  0  0  0  0  0  0  0  0  0  0
    6.8470   -0.3261    3.3900 C   0  0  0  0  0  0  0  0  0  0  0  0
    6.2561   -1.5585    3.5829 C   0  0  0  0  0  0  0  0  0  0  0  0
    6.9605   -2.7449    3.2018 C   0  0  0  0  0  0  0  0  0  0  0  0
    6.2529   -4.1112    3.4463 C   0  0  0  0  0  0  0  0  0  0  0  0
    7.4179    4.5581    7.7775 C   0  0  0  0  0  0  0  0  0  0  0  0
    6.1261    0.8665    3.7578 N   0  0  0  0  0  0  0  0  0  0  0  0
    7.9658    2.6806    6.3491 N   0  0  0  0  0  0  0  0  0  0  0  0
    7.0805    3.6110    6.7185 N   0  0  0  0  0  0  0  0  0  0  0  0
    5.0040    4.6351    6.5465 O   0  0  0  0  0  0  0  0  0  0  0  0
    3.9733    2.8402    4.3434 Cl  0  0  0  0  0  0  0  0  0  0  0  0
  1  2  1  0
  2  3  1  0
  3  4  1  0
  4  5  1  0
  5  6  2  0
  8  9  1  0
  7 10  1  0
  9 10  2  0
  6 11  1  0
 11 12  2  0
  4 13  2  0
 12 13  1  0
  1 14  1  0
 13 14  1  0
 11 16  1  0
 10 16  1  0
  7 17  2  0
 17 18  1  0
  8 18  1  0
 15 18  1  0
  8 19  2  0
  9 20  1  0
M  END
