
     RDKit          3D

 12 13  0  0  0  0  0  0  0  0999 V2000
  -32.6414  -11.2123   10.8808 C   0  0  0  0  0  0  0  0  0  0  0  0
  -31.2961  -10.9879   10.5958 C   0  0  0  0  0  0  0  0  0  0  0  0
  -33.0571  -11.3551   12.2029 C   0  0  0  0  0  0  0  0  0  0  0  0
  -30.3654  -10.9053   11.6332 C   0  0  0  0  0  0  0  0  0  0  0  0
  -32.1281  -11.2716   13.2413 C   0  0  0  0  0  0  0  0  0  0  0  0
  -27.3081  -13.5237   12.9864 C   0  0  0  0  0  0  0  0  0  0  0  0
  -26.8632  -13.2374   14.4152 C   0  0  0  0  0  0  0  0  0  0  0  0
  -29.7626  -10.9597   14.0907 C   0  0  0  0  0  0  0  0  0  0  0  0
  -28.4261  -11.6612   13.7685 C   0  0  0  0  0  0  0  0  0  0  0  0
  -30.7729  -11.0441   12.9677 C   0  0  0  0  0  0  0  0  0  0  0  0
  -28.5557  -12.7643   12.8190 N   0  0  0  0  0  0  0  0  0  0  0  0
  -27.8966  -12.3430   14.9419 N   0  0  0  0  0  0  0  0  0  0  0  0
  1  2  4  0
  1  3  4  0
  2  4  4  0
  3  5  4  0
  6  7  1  0
  8  9  1  0
  4 10  4  0
  8 10  1  0
  5 10  4  0
  6 11  1  0
  9 11  1  0
  9 12  1  0
  7 12  1  0
M  END
