8G6P_API_A_809
     RDKit          3D

 13 12  0  0  0  0  0  0  0  0999 V2000
  -50.0065    5.8379  -15.5978 C   0  0  0  0  0  0  0  0  0  0  0  0
  -50.7592    6.6116  -14.6036 C   0  0  2  0  0  0  0  0  0  0  0  0
  -52.2127    6.7826  -14.9007 C   0  0  0  0  0  0  0  0  0  0  0  0
  -52.9649    7.5125  -13.8120 C   0  0  0  0  0  0  0  0  0  0  0  0
  -54.4143    7.5163  -14.2352 C   0  0  0  0  0  0  0  0  0  0  0  0
  -55.3447    8.1136  -13.2252 C   0  0  2  0  0  0  0  0  0  0  0  0
  -54.9863    9.4744  -12.7809 C   0  0  0  0  0  0  0  0  0  0  0  0
  -48.8893    6.2463  -16.0271 O   0  0  0  0  0  0  0  0  0  0  0  0
  -50.4503    4.6225  -16.1351 O   0  0  0  0  0  0  0  0  0  0  0  0
  -54.5860    9.5935  -11.5768 O   0  0  0  0  0  0  0  0  0  0  0  0
  -55.0521   10.6082  -13.5593 O   0  0  0  0  0  0  0  0  0  0  0  0
  -50.0642    7.8268  -14.2734 N   0  0  0  0  0  0  0  0  0  0  0  0
  -55.3525    7.2760  -12.0146 N   0  0  0  0  0  0  0  0  0  0  0  0
  1  2  1  0
  3  2  1  1
  4  3  1  6
  4  5  1  0
  5  6  1  6
  6  7  1  0
  1  8  2  0
  1  9  1  0
  7 10  2  0
  7 11  1  0
  2 12  1  6
  6 13  1  1
M  END
$$$$
