1R9O_FLP_A_501
     RDKit          3D

 31 32  0  0  0  0  0  0  0  0999 V2000
   -0.0705    3.8910    1.7650 C   0  0  0  0  0  0  0  0  0  0  0  0
    0.0286    2.8648    0.8203 C   0  0  0  0  0  0  0  0  0  0  0  0
   -0.3386    1.5492    1.1580 C   0  0  0  0  0  0  0  0  0  0  0  0
   -0.7967    1.2813    2.4611 C   0  0  0  0  0  0  0  0  0  0  0  0
   -0.8947    2.3112    3.4018 C   0  0  0  0  0  0  0  0  0  0  0  0
   -0.5329    3.6149    3.0539 C   0  0  0  0  0  0  0  0  0  0  0  0
   -0.2282    0.4549    0.1627 C   0  0  0  0  0  0  0  0  0  0  0  0
    0.3703   -0.7638    0.5234 C   0  0  0  0  0  0  0  0  0  0  0  0
    0.4864   -1.8008   -0.4052 C   0  0  0  0  0  0  0  0  0  0  0  0
    0.0042   -1.6427   -1.7167 C   0  0  0  0  0  0  0  0  0  0  0  0
   -0.6029   -0.4275   -2.0748 C   0  0  0  0  0  0  0  0  0  0  0  0
   -0.7194    0.6125   -1.1473 C   0  0  0  0  0  0  0  0  0  0  0  0
    0.1180   -2.7626   -2.7317 C   0  0  2  0  0  0  0  0  0  0  0  0
   -0.7178   -3.9775   -2.3114 C   0  0  0  0  0  0  0  0  0  0  0  0
    1.5600   -3.1324   -2.9538 C   0  0  0  0  0  0  0  0  0  0  0  0
    2.2172   -2.5648   -3.8671 O   0  0  0  0  0  0  0  0  0  0  0  0
    2.1887   -4.0608   -2.1276 O   0  0  0  0  0  0  0  0  0  0  0  0
   -1.3454    1.7574   -1.5215 F   0  0  0  0  0  0  0  0  0  0  0  0
    0.2158    4.9002    1.4986 H   0  0  0  0  0  0  0  0  0  0  0  0
    0.4082    3.0948   -0.1674 H   0  0  0  0  0  0  0  0  0  0  0  0
   -1.0912    0.2788    2.7458 H   0  0  0  0  0  0  0  0  0  0  0  0
   -1.2529    2.0985    4.4008 H   0  0  0  0  0  0  0  0  0  0  0  0
   -0.6086    4.4106    3.7837 H   0  0  0  0  0  0  0  0  0  0  0  0
    0.7628   -0.9087    1.5224 H   0  0  0  0  0  0  0  0  0  0  0  0
    0.9561   -2.7267   -0.0994 H   0  0  0  0  0  0  0  0  0  0  0  0
   -0.9943   -0.2843   -3.0744 H   0  0  0  0  0  0  0  0  0  0  0  0
   -0.2913   -2.4210   -3.7092 H   0  0  0  0  0  0  0  0  0  0  0  0
   -1.7832   -3.6830   -2.1990 H   0  0  0  0  0  0  0  0  0  0  0  0
   -0.3626   -4.3991   -1.3471 H   0  0  0  0  0  0  0  0  0  0  0  0
   -0.6561   -4.7685   -3.0893 H   0  0  0  0  0  0  0  0  0  0  0  0
    3.1641   -4.2991   -2.2614 H   0  0  0  0  0  0  0  0  0  0  0  0
  1  2  2  0
  2  3  1  0
  3  4  2  0
  4  5  1  0
  1  6  1  0
  5  6  2  0
  3  7  1  0
  7  8  2  0
  8  9  1  0
  9 10  2  0
 10 11  1  0
  7 12  1  0
 11 12  2  0
 10 13  1  0
 13 14  1  0
 13 15  1  0
 15 16  2  0
 15 17  1  0
 12 18  1  0
  1 19  1  0
  2 20  1  0
  4 21  1  0
  5 22  1  0
  6 23  1  0
  8 24  1  0
  9 25  1  0
 11 26  1  0
 13 27  1  6
 14 28  1  0
 14 29  1  0
 14 30  1  0
 17 31  1  0
M  END
