@<TRIPOS>MOLECULE
1R9O_FLP_A_501
 31 32 0 0 0
SMALL
GASTEIGER

@<TRIPOS>ATOM
      1 C           7.1650   28.8000   -3.4190 C.ar    1  UNL1       -0.0612
      2 C           7.9960   29.9080   -2.9780 C.ar    1  UNL1       -0.0539
      3 C           7.4050   31.1310   -2.4090 C.ar    1  UNL1       -0.0151
      4 C           5.9180   31.1860   -2.3550 C.ar    1  UNL1       -0.0539
      5 C           5.1100   30.0940   -2.7940 C.ar    1  UNL1       -0.0612
      6 C           5.7330   28.9200   -3.3470 C.ar    1  UNL1       -0.0617
      7 C           8.2080   32.2190   -1.9230 C.ar    1  UNL1        0.0173
      8 C           9.4770   31.9350   -1.1840 C.ar    1  UNL1       -0.0510
      9 C          10.2930   32.9970   -0.6700 C.ar    1  UNL1       -0.0570
     10 C           9.9840   34.3880   -0.9680 C.ar    1  UNL1       -0.0312
     11 C           8.7720   34.6890   -1.6770 C.ar    1  UNL1       -0.0219
     12 C           7.9400   33.6530   -2.2260 C.ar    1  UNL1        0.1313
     13 C          10.8540   35.5880   -0.4360 C.3     1  UNL1        0.0785
     14 C          10.2100   36.3010    0.8070 C.3     1  UNL1       -0.0482
     15 C          11.1200   36.6260   -1.6110 C.2     1  UNL1        0.3119
     16 O          10.5880   37.7400   -1.5960 O.2     1  UNL1       -0.2503
     17 O          11.8690   36.2900   -2.5550 O.3     1  UNL1       -0.4802
     18 F           6.8130   34.0900   -2.9120 F       1  UNL1       -0.2048
     19 H           7.5979   27.9356   -3.7802 H       1  UNL1        0.0618
     20 H           9.0218   29.8361   -3.0655 H       1  UNL1        0.0624
     21 H           5.4595   32.0357   -1.9907 H       1  UNL1        0.0624
     22 H           4.0823   30.1461   -2.7151 H       1  UNL1        0.0618
     23 H           5.1418   28.1505   -3.6982 H       1  UNL1        0.0618
     24 H           9.7712   30.9562   -1.0411 H       1  UNL1        0.0625
     25 H          11.1100   32.7719   -0.0811 H       1  UNL1        0.0621
     26 H           8.4909   35.6749   -1.7955 H       1  UNL1        0.0649
     27 H          11.7865   35.1839   -0.1012 H       1  UNL1        0.0459
     28 H           9.2688   36.7258    0.5265 H       1  UNL1        0.0241
     29 H          10.8626   37.0759    1.1514 H       1  UNL1        0.0241
     30 H          10.0600   35.5870    1.5897 H       1  UNL1        0.0241
     31 H          12.2682   35.4423   -2.5574 H       1  UNL1        0.2951
@<TRIPOS>BOND
     1     1     2   ar
     2     2     3   ar
     3     3     4   ar
     4     4     5   ar
     5     1     6   ar
     6     5     6   ar
     7     3     7    1
     8     7     8   ar
     9     8     9   ar
    10     9    10   ar
    11    10    11   ar
    12     7    12   ar
    13    11    12   ar
    14    10    13    1
    15    13    14    1
    16    13    15    1
    17    15    16    2
    18    15    17    1
    19    12    18    1
    20     1    19    1
    21     2    20    1
    22     4    21    1
    23     5    22    1
    24     6    23    1
    25     8    24    1
    26     9    25    1
    27    11    26    1
    28    13    27    1
    29    14    28    1
    30    14    29    1
    31    14    30    1
    32    17    31    1
