7BJ6_TVK_A_207
     RDKit          3D

 37 41  0  0  0  0  0  0  0  0999 V2000
  -18.0923   -9.9849   16.1778 C   0  0  0  0  0  0  0  0  0  0  0  0
  -18.9484   -8.7811   16.5934 C   0  0  1  0  0  0  0  0  0  0  0  0
  -21.6509   -9.3476   14.2634 C   0  0  1  0  0  0  0  0  0  0  0  0
  -23.4085  -10.8322   15.4186 C   0  0  0  0  0  0  0  0  0  0  0  0
  -24.7243  -10.7927   13.3440 C   0  0  0  0  0  0  0  0  0  0  0  0
  -25.4305  -11.3703   12.3043 C   0  0  0  0  0  0  0  0  0  0  0  0
  -25.5770  -12.7267   12.3194 C   0  0  0  0  0  0  0  0  0  0  0  0
  -25.0168  -13.4199   13.3600 C   0  0  0  0  0  0  0  0  0  0  0  0
  -23.5687   -8.3384   15.1599 C   0  0  0  0  0  0  0  0  0  0  0  0
  -24.5910   -8.1016   15.8247 O   0  0  0  0  0  0  0  0  0  0  0  0
  -23.1655   -5.9773   14.1624 C   0  0  0  0  0  0  0  0  0  0  0  0
  -21.2990   -5.8184   12.7194 C   0  0  0  0  0  0  0  0  0  0  0  0
  -21.0116   -7.1632   12.9576 C   0  0  0  0  0  0  0  0  0  0  0  0
  -21.7992   -7.9207   13.7997 C   0  0  0  0  0  0  0  0  0  0  0  0
  -22.7393   -3.7853   13.1105 C   0  0  1  0  0  0  0  0  0  0  0  0
  -22.0630   -3.2388   11.8837 C   0  0  0  0  0  0  0  0  0  0  0  0
  -24.2563   -3.6811   13.0057 C   0  0  0  0  0  0  0  0  0  0  0  0
  -22.1060  -10.6382   10.7247 C   0  0  0  0  0  0  0  0  0  0  0  0
  -20.9317  -11.4636   13.0948 C   0  0  0  0  0  0  0  0  0  0  0  0
  -19.4242   -8.7727   18.0265 C   0  0  0  0  0  0  0  0  0  0  0  0
  -18.3398   -7.8418   17.5351 C   0  0  0  0  0  0  0  0  0  0  0  0
  -18.5725  -11.1327   16.7655 O   0  0  0  0  0  0  0  0  0  0  0  0
  -19.9578   -8.3580   15.5405 C   0  0  0  0  0  0  0  0  0  0  0  0
  -20.5229   -9.4795   15.0174 O   0  0  0  0  0  0  0  0  0  0  0  0
  -22.8561   -9.5877   14.9837 N   0  0  0  0  0  0  0  0  0  0  0  0
  -24.1691  -11.5200   14.3829 C   0  0  0  0  0  0  0  0  0  0  0  0
  -26.4395  -13.6178   11.0832 Cl  0  0  0  0  0  0  0  0  0  0  0  0
  -24.3307  -12.8359   14.3673 N   0  0  0  0  0  0  0  0  0  0  0  0
  -22.8690   -7.3171   14.3905 C   0  0  0  0  0  0  0  0  0  0  0  0
  -22.3815   -5.2136   13.3228 C   0  0  0  0  0  0  0  0  0  0  0  0
  -19.9248   -7.6519   12.3118 F   0  0  0  0  0  0  0  0  0  0  0  0
  -22.3715   -2.9948   14.2057 O   0  0  0  0  0  0  0  0  0  0  0  0
  -21.5781  -10.2423   13.0457 C   0  0  0  0  0  0  0  0  0  0  0  0
  -22.1688   -9.8257   11.8556 C   0  0  0  0  0  0  0  0  0  0  0  0
  -21.4527  -11.8468   10.8170 C   0  0  0  0  0  0  0  0  0  0  0  0
  -21.4006  -12.8348    9.3650 Cl  0  0  0  0  0  0  0  0  0  0  0  0
  -20.8674  -12.2709   11.9772 C   0  0  0  0  0  0  0  0  0  0  0  0
  2  1  1  6
  5  6  2  0
  6  7  1  0
  7  8  2  0
  9 10  2  0
 12 13  1  0
 13 14  2  0
  3 14  1  0
 15 16  1  6
 15 17  1  0
  2 20  1  0
  2 21  1  0
 20 21  1  0
  1 22  1  0
  2 23  1  0
  3 24  1  1
 23 24  1  0
  3 25  1  0
  9 25  1  0
  4 25  1  0
  5 26  1  0
  4 26  1  0
  7 27  1  0
  8 28  1  0
 26 28  2  0
 14 29  1  0
 11 29  2  0
  9 29  1  0
 12 30  2  0
 15 30  1  0
 11 30  1  0
 13 31  1  0
 15 32  1  0
 19 33  2  0
  3 33  1  0
 18 34  2  0
 33 34  1  0
 18 35  1  0
 35 36  1  0
 35 37  2  0
 19 37  1  0
M  END
$$$$
