
     RDKit          3D

 25 28  0  0  0  0  0  0  0  0999 V2000
  129.6113   -7.0085   31.3745 C   0  0  0  0  0  0  0  0  0  0  0  0
  125.9106   -5.8443   35.4870 C   0  0  0  0  0  0  0  0  0  0  0  0
  125.8781   -3.6752   36.5984 C   0  0  0  0  0  0  0  0  0  0  0  0
  131.1586   -2.1561   36.8032 C   0  0  0  0  0  0  0  0  0  0  0  0
  131.4829   -0.7120   36.8955 C   0  0  0  0  0  0  0  0  0  0  0  0
  127.8356    1.7171   36.0210 C   0  0  0  0  0  0  0  0  0  0  0  0
  128.0045    0.2714   36.0747 C   0  0  0  0  0  0  0  0  0  0  0  0
  127.0433   -0.7065   35.8568 C   0  0  0  0  0  0  0  0  0  0  0  0
  127.6394   -1.9816   36.0163 C   0  0  0  0  0  0  0  0  0  0  0  0
  127.0332   -3.3003   35.8803 C   0  0  0  0  0  0  0  0  0  0  0  0
  127.6216   -4.2136   34.9892 C   0  0  0  0  0  0  0  0  0  0  0  0
  127.0786   -5.4898   34.8101 C   0  0  0  0  0  0  0  0  0  0  0  0
  127.7039   -6.4826   33.8964 C   0  0  0  0  0  0  0  0  0  0  0  0
  129.8060   -7.2136   32.8510 C   0  0  0  0  0  0  0  0  0  0  0  0
  130.9037   -6.6059   32.0213 C   0  0  0  0  0  0  0  0  0  0  0  0
  125.3169   -4.9449   36.3740 C   0  0  0  0  0  0  0  0  0  0  0  0
  125.2069   -2.7616   37.5884 C   0  0  0  0  0  0  0  0  0  0  0  0
  128.9780   -1.7747   36.3026 C   0  0  0  0  0  0  0  0  0  0  0  0
  130.4577    0.1159   36.6582 C   0  0  0  0  0  0  0  0  0  0  0  0
  126.9466    2.2655   34.9285 C   0  0  0  0  0  0  0  0  0  0  0  0
  129.0813   -6.4199   33.7908 N   0  0  0  0  0  0  0  0  0  0  0  0
  129.9986   -2.6656   36.5228 N   0  0  0  0  0  0  0  0  0  0  0  0
  129.1926   -0.3930   36.3573 N   0  0  0  0  0  0  0  0  0  0  0  0
  128.3717    2.4967   36.8077 O   0  0  0  0  0  0  0  0  0  0  0  0
  127.0063   -7.3104   33.3198 O   0  0  0  0  0  0  0  0  0  0  0  0
  4  5  4  0
  6  7  1  0
  7  8  4  0
  8  9  4  0
  9 10  1  0
  3 10  4  0
 10 11  4  0
 11 12  4  0
  2 12  4  0
 12 13  1  0
  1 14  1  0
 14 15  1  0
  1 15  1  0
  3 16  4  0
  2 16  4  0
  3 17  1  0
  9 18  4  0
  5 19  4  0
  6 20  1  0
 14 21  1  0
 13 21  1  0
  4 22  4  0
 18 22  4  0
 19 23  4  0
 18 23  4  0
  7 23  4  0
  6 24  2  0
 13 25  2  0
M  END
