
     RDKit          3D

 35 39  0  0  0  0  0  0  0  0999 V2000
  -21.1723   11.4899  -16.7640 C   0  0  2  0  0  0  0  0  0  0  0  0
  -22.1361    7.3124  -14.3818 C   0  0  1  0  0  0  0  0  0  0  0  0
  -22.9954    5.4210  -15.8935 C   0  0  0  0  0  0  0  0  0  0  0  0
  -15.9683    6.7622  -17.9016 C   0  0  0  0  0  0  0  0  0  0  0  0
  -15.6681    6.4642  -15.6200 C   0  0  0  0  0  0  0  0  0  0  0  0
  -17.7513    6.7205  -16.3326 C   0  0  0  0  0  0  0  0  0  0  0  0
  -17.3485    6.8492  -17.6521 C   0  0  0  0  0  0  0  0  0  0  0  0
  -19.4755    7.0411  -17.6741 C   0  0  0  0  0  0  0  0  0  0  0  0
  -19.9869    6.8446  -15.2065 C   0  0  2  0  0  0  0  0  0  0  0  0
  -21.0696    7.9174  -15.2859 C   0  0  2  0  0  0  0  0  0  0  0  0
  -21.6594   10.1951  -14.8670 C   0  0  2  0  0  0  0  0  0  0  0  0
  -22.5031   10.7672  -16.9729 C   0  0  1  0  0  0  0  0  0  0  0  0
  -21.0924   11.5662  -15.2454 C   0  0  0  0  0  0  0  0  0  0  0  0
  -22.0567    5.8293  -14.7474 C   0  0  1  0  0  0  0  0  0  0  0  0
  -22.5189    9.9164  -18.2445 C   0  0  0  0  0  0  0  0  0  0  0  0
  -15.4179    6.8750  -19.1708 N   0  0  0  0  0  0  0  0  0  0  0  0
  -15.1315    6.5870  -16.8537 N   0  0  0  0  0  0  0  0  0  0  0  0
  -16.9654    6.5255  -15.2616 N   0  0  0  0  0  0  0  0  0  0  0  0
  -18.4317    7.0676  -18.4779 N   0  0  0  0  0  0  0  0  0  0  0  0
  -19.1141    6.8487  -16.3663 N   0  0  0  0  0  0  0  0  0  0  0  0
  -20.6118    9.2260  -14.9546 O   0  0  0  0  0  0  0  0  0  0  0  0
  -22.7025    9.9235  -15.8207 O   0  0  0  0  0  0  0  0  0  0  0  0
  -21.1594   12.7859  -17.3549 O   0  0  0  0  0  0  0  0  0  0  0  0
  -21.9191   12.6357  -14.7639 O   0  0  0  0  0  0  0  0  0  0  0  0
  -21.7583    7.4967  -13.0096 O   0  0  0  0  0  0  0  0  0  0  0  0
  -22.8875    6.3071  -17.0010 O   0  0  0  0  0  0  0  0  0  0  0  0
  -22.3802    4.7126  -18.8343 O   0  0  0  0  0  0  0  0  0  0  0  0
  -23.2228    6.9515  -19.4507 O   0  0  0  0  0  0  0  0  0  0  0  0
  -25.5450    7.9306  -19.5058 O   0  0  0  0  0  0  0  0  0  0  0  0
  -23.7460    9.1966  -18.3197 O   0  0  0  0  0  0  0  0  0  0  0  0
  -23.7305    9.0321  -20.9149 O   0  0  0  0  0  0  0  0  0  0  0  0
  -24.8346    5.1753  -18.3483 O   0  0  0  0  0  0  0  0  0  0  0  0
  -20.6822    5.5731  -15.1377 O   0  0  0  0  0  0  0  0  0  0  0  0
  -23.4825    5.7984  -18.4029 P   0  0  2  0  0  5  0  0  0  0  0  0
  -24.0009    8.3166  -19.6314 P   0  0  1  0  0  5  0  0  0  0  0  0
  6  7  4  0
  4  7  4  0
  2 10  1  0
  9 10  1  0
  1 12  1  0
 11 13  1  0
  1 13  1  0
  2 14  1  0
 14  3  1  6
 12 15  1  6
  4 16  1  0
  4 17  4  0
  5 17  4  0
  6 18  4  0
  5 18  4  0
  8 19  4  0
  7 19  4  0
  9 20  1  6
  8 20  4  0
  6 20  4  0
 10 21  1  1
 11 21  1  6
 11 22  1  0
 12 22  1  0
  1 23  1  6
 13 24  1  0
  2 25  1  1
  3 26  1  0
 15 30  1  0
 14 33  1  0
  9 33  1  0
 26 34  1  0
 32 34  2  0
 28 34  1  0
 34 27  1  6
 28 35  1  0
 30 35  1  0
 31 35  2  0
 35 29  1  6
M  END
