
     RDKit          3D

 49 56  0  0  0  0  0  0  0  0999 V2000
   -7.7387  -10.3375   23.1865 C   0  0  1  0  0  0  0  0  0  0  0  0
   -7.9013  -11.1933   24.4480 C   0  0  0  0  0  0  0  0  0  0  0  0
   -8.3749   -5.8044   21.4464 C   0  0  0  0  0  0  0  0  0  0  0  0
   -8.4442   -9.0294   23.3960 C   0  0  0  0  0  0  0  0  0  0  0  0
   -8.4388   -7.8767   22.6444 C   0  0  0  0  0  0  0  0  0  0  0  0
   -7.8706   -7.2838   21.4145 C   0  0  0  0  0  0  0  0  0  0  0  0
  -10.5136   -4.8427   22.6436 C   0  0  0  0  0  0  0  0  0  0  0  0
   -3.4324  -11.1625   21.0317 C   0  0  0  0  0  0  0  0  0  0  0  0
   -7.4960  -10.8198   25.5491 O   0  0  0  0  0  0  0  0  0  0  0  0
   -3.5551  -12.4087   20.2123 C   0  0  0  0  0  0  0  0  0  0  0  0
   -9.9914  -12.3952   24.2298 C   0  0  0  0  0  0  0  0  0  0  0  0
    4.3223  -13.7957   14.1652 C   0  0  0  0  0  0  0  0  0  0  0  0
  -12.1391  -11.9960   24.0192 C   0  0  0  0  0  0  0  0  0  0  0  0
   -4.4945  -10.5780   21.7606 C   0  0  0  0  0  0  0  0  0  0  0  0
   -4.3038   -9.3879   22.5576 C   0  0  0  0  0  0  0  0  0  0  0  0
   -5.5039   -9.1167   23.1559 C   0  0  0  0  0  0  0  0  0  0  0  0
   -3.1318   -8.6504   22.7182 C   0  0  0  0  0  0  0  0  0  0  0  0
    1.2695  -11.9100   19.6701 C   0  0  0  0  0  0  0  0  0  0  0  0
    2.0515  -11.1397   18.8097 C   0  0  0  0  0  0  0  0  0  0  0  0
    3.2918  -11.6168   18.3757 C   0  0  0  0  0  0  0  0  0  0  0  0
   -9.2721   -5.7017   22.6885 C   0  0  1  0  0  0  0  0  0  0  0  0
   -9.2187   -7.0123   23.3225 N   0  0  0  0  0  0  0  0  0  0  0  0
   -9.6975   -7.5835   24.4437 C   0  0  0  0  0  0  0  0  0  0  0  0
   -9.2573   -8.8306   24.5218 N   0  0  0  0  0  0  0  0  0  0  0  0
   -9.3294   -4.4058   23.4595 C   0  0  0  0  0  0  0  0  0  0  0  0
   -6.3318  -10.1580   22.7952 N   0  0  0  0  0  0  0  0  0  0  0  0
   -2.2052  -10.4676   21.2119 C   0  0  0  0  0  0  0  0  0  0  0  0
   -2.0752   -9.2743   22.0068 C   0  0  0  0  0  0  0  0  0  0  0  0
   -2.9188   -7.4205   23.5409 C   0  0  0  0  0  0  0  0  0  0  0  0
   -3.4810   -7.5243   24.7775 F   0  0  0  0  0  0  0  0  0  0  0  0
   -1.6000   -7.1476   23.7576 F   0  0  0  0  0  0  0  0  0  0  0  0
   -1.0017  -10.9732   20.6117 C   0  0  0  0  0  0  0  0  0  0  0  0
    0.0257  -11.4009   20.1592 C   0  0  0  0  0  0  0  0  0  0  0  0
    3.7617  -12.8704   18.7930 C   0  0  0  0  0  0  0  0  0  0  0  0
    2.9614  -13.6412   19.6502 C   0  0  0  0  0  0  0  0  0  0  0  0
    1.7228  -13.1642   20.0854 C   0  0  0  0  0  0  0  0  0  0  0  0
    5.1362  -13.3618   18.3805 C   0  0  0  0  0  0  0  0  0  0  0  0
   -5.7834  -10.9523   21.8447 N   0  0  0  0  0  0  0  0  0  0  0  0
   -8.6251  -12.3584   24.2110 N   0  0  0  0  0  0  0  0  0  0  0  0
  -10.6297  -13.7937   24.9842 S   0  0  0  0  0  0  0  0  0  0  0  0
  -12.2145  -13.2056   24.6796 C   0  0  0  0  0  0  0  0  0  0  0  0
  -10.8619  -11.5305   23.7715 N   0  0  0  0  0  0  0  0  0  0  0  0
    5.4130  -12.6031   16.1086 C   0  0  0  0  0  0  0  0  0  0  0  0
    5.5422  -12.9918   14.6341 C   0  0  0  0  0  0  0  0  0  0  0  0
    4.0937  -14.9777   15.1119 C   0  0  0  0  0  0  0  0  0  0  0  0
    4.0059  -14.5187   16.5690 C   0  0  0  0  0  0  0  0  0  0  0  0
    5.2155  -13.7823   16.9683 N   0  0  0  0  0  0  0  0  0  0  0  0
    4.4835  -14.2721   12.7216 C   0  0  0  0  0  0  0  0  0  0  0  0
    3.3198  -14.9857   12.3141 O   0  0  0  0  0  0  0  0  0  0  0  0
  1  2  1  0
  1  4  1  1
  4  5  4  0
  5  6  1  0
  3  6  1  0
  2  9  2  0
  8 10  1  0
  8 14  4  0
 14 15  4  0
 15 16  4  0
 15 17  4  0
 18 19  4  0
 19 20  4  0
 21  7  1  6
  3 21  1  0
  5 22  4  0
 21 22  1  0
 22 23  4  0
 23 24  4  0
  4 24  4  0
  7 25  1  0
 21 25  1  0
  1 26  1  0
 16 26  4  0
  8 27  4  0
 27 28  4  0
 17 28  4  0
 17 29  1  0
 29 30  1  0
 29 31  1  0
 27 32  1  0
 18 33  1  0
 32 33  3  0
 20 34  4  0
 34 35  4  0
 35 36  4  0
 18 36  4  0
 34 37  1  0
 14 38  4  0
 26 38  4  0
  2 39  1  0
 11 39  1  0
 11 40  4  0
 13 41  4  0
 40 41  4  0
 11 42  4  0
 13 42  4  0
 12 44  1  0
 43 44  1  0
 12 45  1  0
 45 46  1  0
 43 47  1  0
 46 47  1  0
 37 47  1  0
 12 48  1  0
 48 49  1  0
M  END
