8GFD_ZHR_A_601
     RDKit          3D

 26 28  0  0  0  0  0  0  0  0999 V2000
  -36.4537  -71.1962  -15.8674 C   0  0  0  0  0  0  0  0  0  0  0  0
  -37.8685  -70.7629  -16.0038 C   0  0  0  0  0  0  0  0  0  0  0  0
  -38.5927  -71.2175  -16.8614 O   0  0  0  0  0  0  0  0  0  0  0  0
  -38.3250  -69.8380  -15.1486 N   0  0  0  0  0  0  0  0  0  0  0  0
  -39.6851  -69.6789  -14.6842 C   0  0  2  0  0  0  0  0  0  0  0  0
  -40.1354  -68.2308  -14.8210 C   0  0  1  0  0  0  0  0  0  0  0  0
  -40.0676  -67.8058  -16.1886 O   0  0  0  0  0  0  0  0  0  0  0  0
  -41.5522  -68.0902  -14.2792 C   0  0  2  0  0  0  0  0  0  0  0  0
  -41.9483  -66.7263  -14.2583 O   0  0  0  0  0  0  0  0  0  0  0  0
  -41.6376  -68.6127  -12.8418 C   0  0  1  0  0  0  0  0  0  0  0  0
  -43.0249  -68.6269  -12.3216 C   0  0  0  0  0  0  0  0  0  0  0  0
  -43.0764  -69.1139  -10.9558 O   0  0  0  0  0  0  0  0  0  0  0  0
  -41.2208  -69.9784  -12.8286 O   0  0  0  0  0  0  0  0  0  0  0  0
  -39.8633  -70.1384  -13.2122 C   0  0  1  0  0  0  0  0  0  0  0  0
  -39.5252  -71.4810  -13.1238 O   0  0  0  0  0  0  0  0  0  0  0  0
  -38.4874  -71.8412  -12.1785 C   0  0  0  0  0  0  0  0  0  0  0  0
  -37.1063  -71.4226  -12.6377 C   0  0  0  0  0  0  0  0  0  0  0  0
  -36.6718  -71.7159  -14.0628 C   0  0  0  0  0  0  0  0  0  0  0  0
  -35.9020  -70.7818  -14.7443 C   0  0  0  0  0  0  0  0  0  0  0  0
  -35.4181  -70.9873  -16.0369 C   0  0  0  0  0  0  0  0  0  0  0  0
  -35.7313  -72.1788  -16.6344 C   0  0  0  0  0  0  0  0  0  0  0  0
  -35.4120  -72.5126  -17.9180 O   0  0  0  0  0  0  0  0  0  0  0  0
  -35.8635  -73.8808  -18.1358 C   0  0  0  0  0  0  0  0  0  0  0  0
  -36.6996  -74.3068  -16.9436 C   0  0  0  0  0  0  0  0  0  0  0  0
  -36.5083  -73.1405  -16.0019 C   0  0  0  0  0  0  0  0  0  0  0  0
  -36.9428  -72.9324  -14.6922 C   0  0  0  0  0  0  0  0  0  0  0  0
  1  2  1  0
  2  3  2  0
  2  4  1  0
  5  4  1  1
  5  6  1  0
  6  7  1  6
  6  8  1  0
  8  9  1  1
  8 10  1  0
 10 11  1  6
 11 12  1  0
 10 13  1  0
  5 14  1  0
 13 14  1  0
 14 15  1  6
 15 16  1  0
 16 17  1  0
 17 18  1  0
 18 19  2  0
 19 20  1  0
 20 21  2  0
 21 22  1  0
 22 23  1  0
 23 24  2  0
 21 25  1  0
 24 25  1  0
 18 26  1  0
 25 26  2  0
M  END
