@<TRIPOS>MOLECULE
1T40_ID5_A_320
 38 40 0 0 0
SMALL
GASTEIGER

@<TRIPOS>ATOM
      1 C           1.5592   -4.0207    0.8554 C.ar    1  UNL1        0.0161
      2 C           2.4699   -2.3821    2.9273 C.ar    1  UNL1       -0.0434
      3 C           1.3975   -2.6234    0.7535 C.ar    1  UNL1        0.1361
      4 C           2.1712   -4.5841    1.9770 C.ar    1  UNL1        0.1269
      5 C           2.6310   -3.7659    3.0079 C.ar    1  UNL1       -0.0255
      6 C           1.8386   -1.7992    1.8147 C.ar    1  UNL1        0.0785
      7 F          -4.6284    2.4395   -4.2574 F       1  UNL1       -0.2023
      8 F           2.3261   -5.9286    2.0603 F       1  UNL1       -0.2054
      9 C           1.6751   -0.3279    1.7693 C.2     1  UNL1        0.2479
     10 C          -0.8749    2.0288    0.2619 C.ar    1  UNL1        0.0968
     11 F          -5.3202    3.1564    0.4291 F       1  UNL1       -0.2042
     12 O           0.8299   -2.0257   -0.3868 O.3     1  UNL1       -0.4800
     13 O           2.5809    0.4107    2.2443 O.2     1  UNL1       -0.2701
     14 C           0.4043    1.6996    0.9612 C.3     1  UNL1        0.0607
     15 C           0.3873   -2.7147   -1.5554 C.3     1  UNL1        0.1857
     16 N          -1.0387    1.9041   -1.0781 N.ar    1  UNL1       -0.2393
     17 S          -2.3105    2.4658    1.0479 S.2     1  UNL1       -0.0675
     18 F          -1.9680    1.8246   -3.7788 F       1  UNL1       -0.2002
     19 C          -3.1645    2.5246   -0.3964 C.ar    1  UNL1        0.0774
     20 C          -4.1423    2.4663   -2.9919 C.ar    1  UNL1        0.1633
     21 C          -2.3154    2.1903   -1.4401 C.ar    1  UNL1        0.1192
     22 C          -4.5061    2.8351   -0.6066 C.ar    1  UNL1        0.1420
     23 C          -4.9956    2.8053   -1.9222 C.ar    1  UNL1        0.0129
     24 C          -2.7915    2.1546   -2.7527 C.ar    1  UNL1        0.1849
     25 C           1.5543   -3.2228   -2.3409 C.2     1  UNL1        0.3427
     26 O           2.6480   -2.3943   -2.5719 O.3     1  UNL1       -0.4783
     27 O           1.5338   -4.3875   -2.8207 O.2     1  UNL1       -0.2472
     28 N           0.4884    0.2643    1.2223 N.am    1  UNL1       -0.3051
     29 H           1.2247   -4.6817    0.0688 H       1  UNL1        0.0683
     30 H           2.8244   -1.7652    3.7442 H       1  UNL1        0.0627
     31 H           3.1101   -4.2038    3.8742 H       1  UNL1        0.0646
     32 H           0.4626    2.2574    1.9202 H       1  UNL1        0.0532
     33 H           1.2557    2.0104    0.3181 H       1  UNL1        0.0532
     34 H          -0.3061   -3.5384   -1.2797 H       1  UNL1        0.0815
     35 H          -0.1755   -2.0011   -2.1921 H       1  UNL1        0.0815
     36 H          -6.0338    3.0425   -2.1155 H       1  UNL1        0.0676
     37 H           3.4416   -2.7199   -3.1105 H       1  UNL1        0.2952
     38 H          -0.3456   -0.3421    1.0480 H       1  UNL1        0.1494
@<TRIPOS>BOND
     1     1     3   ar
     2     1     4   ar
     3     2     5   ar
     4     4     5   ar
     5     2     6   ar
     6     3     6   ar
     7     4     8    1
     8     6     9    1
     9     3    12    1
    10     9    13    2
    11    10    14    1
    12    12    15    1
    13    10    16   ar
    14    10    17   ar
    15    17    19   ar
    16     7    20    1
    17    16    21   ar
    18    19    21   ar
    19    11    22    1
    20    19    22   ar
    21    20    23   ar
    22    22    23   ar
    23    18    24    1
    24    20    24   ar
    25    21    24   ar
    26    15    25    1
    27    25    26    1
    28    25    27    2
    29     9    28   am
    30    14    28    1
    31     1    29    1
    32     2    30    1
    33     5    31    1
    34    14    32    1
    35    14    33    1
    36    15    34    1
    37    15    35    1
    38    23    36    1
    39    26    37    1
    40    28    38    1
