7TB0_UD1_A_501
     RDKit          3D

 39 41  0  0  0  0  0  0  0  0999 V2000
   24.0712  -16.8367   71.8296 C   0  0  1  0  0  0  0  0  0  0  0  0
   24.4294  -15.6811   70.8783 C   0  0  1  0  0  0  0  0  0  0  0  0
   23.3096  -14.6491   70.8134 C   0  0  2  0  0  0  0  0  0  0  0  0
   21.9767  -15.3192   70.5204 C   0  0  1  0  0  0  0  0  0  0  0  0
   21.7412  -16.4841   71.4917 C   0  0  1  0  0  0  0  0  0  0  0  0
   20.4721  -17.2478   71.1714 C   0  0  0  0  0  0  0  0  0  0  0  0
   26.5996  -14.6780   70.4436 C   0  0  0  0  0  0  0  0  0  0  0  0
   27.1511  -13.2966   70.6809 C   0  0  0  0  0  0  0  0  0  0  0  0
   25.6826  -15.0999   71.3028 N   0  0  0  0  0  0  0  0  0  0  0  0
   24.0110  -16.2745   73.1217 O   0  0  0  0  0  0  0  0  0  0  0  0
   23.6580  -13.6221   69.8663 O   0  0  0  0  0  0  0  0  0  0  0  0
   20.9026  -14.3952   70.7050 O   0  0  0  0  0  0  0  0  0  0  0  0
   22.8383  -17.4149   71.4230 O   0  0  0  0  0  0  0  0  0  0  0  0
   20.1799  -17.3412   69.7643 O   0  0  0  0  0  0  0  0  0  0  0  0
   26.9008  -15.3635   69.4451 O   0  0  0  0  0  0  0  0  0  0  0  0
   21.5979  -16.0459   76.7814 N   0  0  0  0  0  0  0  0  0  0  0  0
   22.6474  -16.8463   77.2281 C   0  0  0  0  0  0  0  0  0  0  0  0
   22.4186  -18.2074   77.1494 N   0  0  0  0  0  0  0  0  0  0  0  0
   21.2627  -18.8291   76.7300 C   0  0  0  0  0  0  0  0  0  0  0  0
   20.2395  -17.9338   76.2792 C   0  0  0  0  0  0  0  0  0  0  0  0
   20.4354  -16.6182   76.3360 C   0  0  0  0  0  0  0  0  0  0  0  0
   23.6745  -16.3688   77.6720 O   0  0  0  0  0  0  0  0  0  0  0  0
   21.1730  -20.0629   76.7431 O   0  0  0  0  0  0  0  0  0  0  0  0
   21.7687  -14.5848   76.9321 C   0  0  1  0  0  0  0  0  0  0  0  0
   23.1692  -14.0668   76.7109 C   0  0  2  0  0  0  0  0  0  0  0  0
   23.2983  -12.9322   77.5815 O   0  0  0  0  0  0  0  0  0  0  0  0
   23.0238  -13.4998   75.3370 C   0  0  1  0  0  0  0  0  0  0  0  0
   21.6257  -12.8625   75.3756 C   0  0  2  0  0  0  0  0  0  0  0  0
   20.8768  -13.8575   76.0926 O   0  0  0  0  0  0  0  0  0  0  0  0
   24.0140  -12.4984   75.3398 O   0  0  0  0  0  0  0  0  0  0  0  0
   20.9393  -12.6886   74.0274 C   0  0  0  0  0  0  0  0  0  0  0  0
   21.0488  -13.9350   73.3255 O   0  0  0  0  0  0  0  0  0  0  0  0
   20.4119  -15.3243   73.8716 P   0  0  2  0  0  0  0  0  0  0  0  0
   19.1337  -15.7014   73.1974 O   0  0  0  0  0  0  0  0  0  0  0  0
   20.3730  -15.2529   75.3537 O   0  0  0  0  0  0  0  0  0  0  0  0
   21.5563  -16.3438   73.4077 O   0  0  0  0  0  0  0  0  0  0  0  0
   22.8934  -16.8099   74.1542 P   0  0  1  0  0  0  0  0  0  0  0  0
   22.9905  -18.2854   74.2942 O   0  0  0  0  0  0  0  0  0  0  0  0
   23.0550  -15.9613   75.3804 O   0  0  0  0  0  0  0  0  0  0  0  0
  1  2  1  0
  2  3  1  0
  3  4  1  0
  4  5  1  0
  5  6  1  6
  7  8  1  0
  2  9  1  1
  7  9  1  0
  1 10  1  1
  3 11  1  6
  4 12  1  1
  1 13  1  0
  5 13  1  0
  6 14  1  0
  7 15  2  0
 16 17  1  0
 17 18  1  0
 18 19  1  0
 19 20  1  0
 16 21  1  0
 20 21  2  0
 17 22  2  0
 19 23  2  0
 24 16  1  6
 24 25  1  0
 25 26  1  1
 25 27  1  0
 27 28  1  0
 24 29  1  0
 28 29  1  0
 27 30  1  1
 28 31  1  6
 31 32  1  0
 32 33  1  0
 33 34  2  0
 33 35  1  1
 33 36  1  0
 10 37  1  0
 36 37  1  0
 37 38  2  0
 37 39  1  1
M  END
