7PA4_C_A_606
     RDKit          3D

 21 22  0  0  0  0  0  0  0  0999 V2000
   26.5076   28.0770   25.9341 O   0  0  0  0  0  0  0  0  0  0  0  0
   25.1017   27.5061   25.1893 P   0  0  1  0  0  5  0  0  0  0  0  0
   24.4897   28.6519   24.4000 O   0  0  0  0  0  0  0  0  0  0  0  0
   25.4926   26.2255   24.1498 O   0  0  0  0  0  0  0  0  0  0  0  0
   23.9856   26.9153   26.3158 O   0  0  0  0  0  0  0  0  0  0  0  0
   23.4863   28.0025   26.9986 C   0  0  0  0  0  0  0  0  0  0  0  0
   22.0630   27.7397   27.4384 C   0  0  1  0  0  0  0  0  0  0  0  0
   21.4207   26.7861   26.6525 O   0  0  0  0  0  0  0  0  0  0  0  0
   22.0828   27.1463   28.8480 C   0  0  1  0  0  0  0  0  0  0  0  0
   21.6522   28.1439   29.7213 O   0  0  0  0  0  0  0  0  0  0  0  0
   21.0931   26.0016   28.7663 C   0  0  1  0  0  0  0  0  0  0  0  0
   20.2121   26.1727   29.8505 O   0  0  0  0  0  0  0  0  0  0  0  0
   20.4252   26.2284   27.4579 C   0  0  2  0  0  0  0  0  0  0  0  0
   19.9628   25.0534   26.7743 N   0  0  0  0  0  0  0  0  0  0  0  0
   18.7104   24.5775   26.9105 C   0  0  0  0  0  0  0  0  0  0  0  0
   17.8854   25.1575   27.6563 O   0  0  0  0  0  0  0  0  0  0  0  0
   18.2732   23.4717   26.2680 N   0  0  0  0  0  0  0  0  0  0  0  0
   19.0825   22.7775   25.4443 C   0  0  0  0  0  0  0  0  0  0  0  0
   18.6022   21.6070   24.7710 N   0  0  0  0  0  0  0  0  0  0  0  0
   20.3768   23.2279   25.2732 C   0  0  0  0  0  0  0  0  0  0  0  0
   20.7859   24.3666   25.9508 C   0  0  0  0  0  0  0  0  0  0  0  0
  2  1  1  1
  2  3  2  0
  2  4  1  0
  2  5  1  0
  6  5  1  1
  7  6  1  0
  7  8  1  6
  7  9  1  0
  9 10  1  1
  9 11  1  0
 11 12  1  1
  8 13  1  0
 11 13  1  0
 13 14  1  6
 14 15  1  0
 15 16  2  0
 15 17  1  0
 17 18  2  0
 18 19  1  0
 18 20  1  0
 14 21  1  0
 20 21  2  0
M  END
$$$$
