
     RDKit          3D

 26 29  0  0  0  0  0  0  0  0999 V2000
  -18.1680    4.8653   20.3638 C   0  0  0  0  0  0  0  0  0  0  0  0
  -18.5701    2.3807   20.2468 C   0  0  0  0  0  0  0  0  0  0  0  0
  -17.3239    2.1897   21.1135 C   0  0  0  0  0  0  0  0  0  0  0  0
  -16.3283    0.0046   20.2877 C   0  0  0  0  0  0  0  0  0  0  0  0
  -17.6718    1.3890   22.3798 C   0  0  0  0  0  0  0  0  0  0  0  0
  -14.2428   -1.7657   21.5821 C   0  0  0  0  0  0  0  0  0  0  0  0
  -14.0572   -3.9396   22.1989 C   0  0  0  0  0  0  0  0  0  0  0  0
  -17.4706   -3.0795   22.9325 C   0  0  0  0  0  0  0  0  0  0  0  0
  -18.2502   -4.1860   22.5437 C   0  0  0  0  0  0  0  0  0  0  0  0
  -19.5410   -4.3710   23.0461 C   0  0  0  0  0  0  0  0  0  0  0  0
  -18.0232   -2.1762   23.8611 C   0  0  0  0  0  0  0  0  0  0  0  0
  -19.7526    6.6005   21.0865 F   0  0  0  0  0  0  0  0  0  0  0  0
  -19.4568    5.6725   20.1460 C   0  0  0  0  0  0  0  0  0  0  0  0
  -20.2237    4.3421   20.2460 C   0  0  0  0  0  0  0  0  0  0  0  0
  -18.9484    3.6804   20.0208 N   0  0  0  0  0  0  0  0  0  0  0  0
  -19.2085    1.4360   19.7867 O   0  0  0  0  0  0  0  0  0  0  0  0
  -16.1915    1.5274   20.3107 C   0  0  0  0  0  0  0  0  0  0  0  0
  -16.3690   -0.5455   21.6586 N   0  0  0  0  0  0  0  0  0  0  0  0
  -16.5724    0.4006   22.7564 C   0  0  0  0  0  0  0  0  0  0  0  0
  -15.6021   -1.6976   21.8796 C   0  0  0  0  0  0  0  0  0  0  0  0
  -13.4497   -2.8501   21.7263 N   0  0  0  0  0  0  0  0  0  0  0  0
  -15.3447   -4.0290   22.5444 N   0  0  0  0  0  0  0  0  0  0  0  0
  -16.0997   -2.9045   22.4054 C   0  0  0  0  0  0  0  0  0  0  0  0
  -20.0603   -3.4545   23.9507 C   0  0  0  0  0  0  0  0  0  0  0  0
  -21.2959   -3.6333   24.4363 F   0  0  0  0  0  0  0  0  0  0  0  0
  -19.3142   -2.3590   24.3639 C   0  0  0  0  0  0  0  0  0  0  0  0
  2  3  1  0
  3  5  1  0
  8  9  4  0
  9 10  4  0
  8 11  4  0
 12 13  1  0
  1 13  1  0
 13 14  1  0
  1 15  1  0
 14 15  1  0
  2 15  1  0
  2 16  2  0
  3 17  1  0
  4 17  1  0
  4 18  1  0
  5 19  1  0
 18 19  1  0
  6 20  4  0
 18 20  1  0
  6 21  4  0
  7 21  4  0
  7 22  4  0
 20 23  4  0
 22 23  4  0
  8 23  1  0
 10 24  4  0
 24 25  1  0
 11 26  4  0
 24 26  4  0
M  END
