7VBU_6I4_A_507
     RDKit          3D

 17 20  0  0  0  0  0  0  0  0999 V2000
   45.9976   37.4536   75.5661 C   0  0  0  0  0  0  0  0  0  0  0  0
   46.0161   38.3842   76.5985 C   0  0  0  0  0  0  0  0  0  0  0  0
   46.1694   39.7456   76.3373 C   0  0  0  0  0  0  0  0  0  0  0  0
   46.1276   37.8373   74.2171 C   0  0  0  0  0  0  0  0  0  0  0  0
   46.2803   39.2157   73.9898 C   0  0  0  0  0  0  0  0  0  0  0  0
   46.3051   40.1773   75.0028 C   0  0  0  0  0  0  0  0  0  0  0  0
   46.1214   36.9075   73.0394 C   0  0  2  0  0  0  0  0  0  0  0  0
   45.7197   35.4553   73.1732 C   0  0  0  0  0  0  0  0  0  0  0  0
   47.1509   35.8094   72.9202 C   0  0  0  0  0  0  0  0  0  0  0  0
   46.5464   41.2378   73.0225 C   0  0  0  0  0  0  0  0  0  0  0  0
   46.4721   41.4568   74.3900 C   0  0  0  0  0  0  0  0  0  0  0  0
   46.5724   42.7868   74.8229 C   0  0  0  0  0  0  0  0  0  0  0  0
   46.7364   43.7729   73.8450 C   0  0  0  0  0  0  0  0  0  0  0  0
   46.7961   43.4117   72.4959 C   0  0  0  0  0  0  0  0  0  0  0  0
   46.9734   44.4752   71.4499 C   0  0  0  0  0  0  0  0  0  0  0  0
   46.7061   42.1406   72.0424 N   0  0  0  0  0  0  0  0  0  0  0  0
   46.4312   39.9016   72.8072 N   0  0  0  0  0  0  0  0  0  0  0  0
  1  2  2  0
  2  3  1  0
  1  4  1  0
  4  5  2  0
  5  6  1  0
  3  6  2  0
  7  4  1  1
  7  8  1  0
  8  9  1  0
  7  9  1  0
 10 11  2  0
  6 11  1  0
 11 12  1  0
 12 13  2  0
 13 14  1  0
 14 15  1  0
 10 16  1  0
 14 16  2  0
 10 17  1  0
  5 17  1  0
M  END
