7D0P_1VU_A_701
     RDKit          3D

 92 94  0  0  0  0  0  0  0  0999 V2000
  199.7954  -10.1614   88.2220 O   0  0  0  0  0  0  0  0  0  0  0  0
  200.6892   -9.0597   88.7533 P   0  0  1  0  0  5  0  0  0  0  0  0
  200.6888   -7.7655   87.6633 O   0  0  0  0  0  0  0  0  0  0  0  0
  200.0936   -8.5346   90.2483 O   0  0  0  0  0  0  0  0  0  0  0  0
  202.2806   -9.6641   88.9146 O   0  0  0  0  0  0  0  0  0  0  0  0
  202.8304   -9.2389   90.1513 C   0  0  1  0  0  0  0  0  0  0  0  0
  203.1496  -10.4323   91.0203 C   0  0  1  0  0  0  0  0  0  0  0  0
  202.3377  -11.5427   90.7368 O   0  0  0  0  0  0  0  0  0  0  0  0
  204.6009  -10.7232   90.6862 C   0  0  2  0  0  0  0  0  0  0  0  0
  205.2927  -11.2982   91.8403 N   0  0  0  0  0  0  0  0  0  0  0  0
  205.3725  -12.5840   92.2002 C   0  0  0  0  0  0  0  0  0  0  0  0
  204.8906  -13.6620   91.5363 N   0  0  0  0  0  0  0  0  0  0  0  0
  205.0748  -14.8940   92.1003 C   0  0  0  0  0  0  0  0  0  0  0  0
  205.7228  -15.0218   93.3031 N   0  0  0  0  0  0  0  0  0  0  0  0
  206.2015  -13.9301   93.9722 C   0  0  0  0  0  0  0  0  0  0  0  0
  206.8558  -14.0798   95.2315 N   0  0  0  0  0  0  0  0  0  0  0  0
  206.0158  -12.6837   93.3861 C   0  0  0  0  0  0  0  0  0  0  0  0
  206.3589  -11.4643   93.8416 N   0  0  0  0  0  0  0  0  0  0  0  0
  205.8928  -10.6377   92.8661 C   0  0  0  0  0  0  0  0  0  0  0  0
  205.2249   -9.5207   90.3059 O   0  0  0  0  0  0  0  0  0  0  0  0
  204.2150   -8.6147   89.9108 C   0  0  2  0  0  0  0  0  0  0  0  0
  204.3851   -7.2997   90.6796 C   0  0  1  0  0  0  0  0  0  0  0  0
  205.7413   -7.1295   91.0207 O   0  0  0  0  0  0  0  0  0  0  0  0
  206.2637   -5.6227   90.4169 P   0  0  1  0  0  5  0  0  0  0  0  0
  206.5211   -4.5431   91.7063 O   0  0  0  0  0  0  0  0  0  0  0  0
  207.5756   -5.8244   89.6907 O   0  0  0  0  0  0  0  0  0  0  0  0
  205.1018   -5.0826   89.2908 O   0  0  0  0  0  0  0  0  0  0  0  0
  204.2190   -3.8051   89.9850 P   0  0  1  0  0  5  0  0  0  0  0  0
  203.8395   -4.1743   91.4053 O   0  0  0  0  0  0  0  0  0  0  0  0
  205.1396   -2.3811   89.9795 O   0  0  0  0  0  0  0  0  0  0  0  0
  202.8255   -3.5653   89.0275 O   0  0  0  0  0  0  0  0  0  0  0  0
  202.0386   -4.7348   89.0417 C   0  0  2  0  0  0  0  0  0  0  0  0
  200.6476   -4.4645   88.4057 C   0  0  2  0  0  0  0  0  0  0  0  0
  200.3066   -2.9641   88.5578 C   0  0  1  0  0  0  0  0  0  0  0  0
  199.5875   -5.2685   89.1917 C   0  0  2  0  0  0  0  0  0  0  0  0
  200.5874   -4.8568   86.8857 C   0  0  1  0  0  0  0  0  0  0  0  0
  200.3462   -3.7296   86.0770 O   0  0  0  0  0  0  0  0  0  0  0  0
  201.8385   -5.5470   86.3995 C   0  0  0  0  0  0  0  0  0  0  0  0
  201.8900   -5.9609   85.2092 O   0  0  0  0  0  0  0  0  0  0  0  0
  202.9661   -5.7226   87.2724 N   0  0  0  0  0  0  0  0  0  0  0  0
  204.2851   -6.1098   86.7805 C   0  0  2  0  0  0  0  0  0  0  0  0
  205.0097   -4.9125   86.1498 C   0  0  1  0  0  0  0  0  0  0  0  0
  206.4923   -5.1467   86.0323 C   0  0  0  0  0  0  0  0  0  0  0  0
  207.2207   -4.3154   85.4208 O   0  0  0  0  0  0  0  0  0  0  0  0
  207.0649   -6.3506   86.5618 N   0  0  0  0  0  0  0  0  0  0  0  0
  207.9215   -7.2246   85.7631 C   0  0  1  0  0  0  0  0  0  0  0  0
  207.3772   -7.3585   84.3416 C   0  0  2  0  0  0  0  0  0  0  0  0
  207.2597   -5.7127   83.5604 S   0  0  0  0  0  0  0  0  0  0  0  0
  206.2917   -6.3175   82.1721 C   0  0  0  0  0  0  0  0  0  0  0  0
  205.7177   -5.5149   81.4455 O   0  0  0  0  0  0  0  0  0  0  0  0
  206.1994   -7.7895   81.8942 C   0  0  2  0  0  0  0  0  0  0  0  0
  205.4558   -8.0548   80.5890 C   0  0  2  0  0  0  0  0  0  0  0  0
  199.7693   -7.3980   87.7018 H   0  0  0  0  0  0  0  0  0  0  0  0
  200.8931   -8.4577   90.8254 H   0  0  0  0  0  0  0  0  0  0  0  0
  202.1565   -8.5701   90.7431 H   0  0  0  0  0  0  0  0  0  0  0  0
  203.0551  -10.1518   92.0960 H   0  0  0  0  0  0  0  0  0  0  0  0
  201.3992  -11.2304   90.8086 H   0  0  0  0  0  0  0  0  0  0  0  0
  204.6631  -11.4272   89.8275 H   0  0  0  0  0  0  0  0  0  0  0  0
  204.7035  -15.7738   91.5962 H   0  0  0  0  0  0  0  0  0  0  0  0
  206.7109  -13.3859   95.9976 H   0  0  0  0  0  0  0  0  0  0  0  0
  207.5003  -14.8842   95.3949 H   0  0  0  0  0  0  0  0  0  0  0  0
  205.9767   -9.5597   92.9152 H   0  0  0  0  0  0  0  0  0  0  0  0
  204.3484   -8.3970   88.8282 H   0  0  0  0  0  0  0  0  0  0  0  0
  204.0164   -6.4735   90.0289 H   0  0  0  0  0  0  0  0  0  0  0  0
  203.7665   -7.3414   91.6030 H   0  0  0  0  0  0  0  0  0  0  0  0
  206.6030   -5.1231   92.5062 H   0  0  0  0  0  0  0  0  0  0  0  0
  204.5037   -1.6606   89.7401 H   0  0  0  0  0  0  0  0  0  0  0  0
  201.8868   -5.0887   90.0861 H   0  0  0  0  0  0  0  0  0  0  0  0
  202.5462   -5.5430   88.4715 H   0  0  0  0  0  0  0  0  0  0  0  0
  200.9013   -2.3555   87.8421 H   0  0  0  0  0  0  0  0  0  0  0  0
  199.2334   -2.7723   88.3504 H   0  0  0  0  0  0  0  0  0  0  0  0
  200.5357   -2.6134   89.5862 H   0  0  0  0  0  0  0  0  0  0  0  0
  198.7731   -4.6007   89.5466 H   0  0  0  0  0  0  0  0  0  0  0  0
  200.0324   -5.7542   90.0867 H   0  0  0  0  0  0  0  0  0  0  0  0
  199.1324   -6.0543   88.5509 H   0  0  0  0  0  0  0  0  0  0  0  0
  199.7504   -5.5839   86.7505 H   0  0  0  0  0  0  0  0  0  0  0  0
  199.4027   -3.7737   85.7725 H   0  0  0  0  0  0  0  0  0  0  0  0
  202.8825   -5.4481   88.2776 H   0  0  0  0  0  0  0  0  0  0  0  0
  204.1629   -6.9052   86.0125 H   0  0  0  0  0  0  0  0  0  0  0  0
  204.8834   -6.5324   87.6180 H   0  0  0  0  0  0  0  0  0  0  0  0
  204.5915   -4.7286   85.1379 H   0  0  0  0  0  0  0  0  0  0  0  0
  204.8408   -4.0017   86.7595 H   0  0  0  0  0  0  0  0  0  0  0  0
  206.9171   -6.5840   87.5711 H   0  0  0  0  0  0  0  0  0  0  0  0
  208.9552   -6.8208   85.7470 H   0  0  0  0  0  0  0  0  0  0  0  0
  207.9580   -8.2322   86.2317 H   0  0  0  0  0  0  0  0  0  0  0  0
  206.3631   -7.8156   84.3699 H   0  0  0  0  0  0  0  0  0  0  0  0
  208.0515   -8.0111   83.7448 H   0  0  0  0  0  0  0  0  0  0  0  0
  205.6634   -8.2997   82.7233 H   0  0  0  0  0  0  0  0  0  0  0  0
  207.2246   -8.2137   81.8300 H   0  0  0  0  0  0  0  0  0  0  0  0
  204.8897   -9.0065   80.6538 H   0  0  0  0  0  0  0  0  0  0  0  0
  206.1758   -8.1138   79.7374 H   0  0  0  0  0  0  0  0  0  0  0  0
  204.7346   -7.2299   80.3976 H   0  0  0  0  0  0  0  0  0  0  0  0
  1  2  2  0
  2  3  1  6
  2  4  1  0
  2  5  1  0
  6  5  1  0
  6  7  1  0
  7  8  1  0
  7  9  1  0
  9 10  1  0
 10 11  1  0
 11 12  2  0
 12 13  1  0
 13 14  2  0
 14 15  1  0
 15 16  1  0
 11 17  1  0
 15 17  2  0
 17 18  1  0
 18 19  2  0
 10 19  1  0
  9 20  1  0
  6 21  1  0
 20 21  1  0
 21 22  1  0
 22 23  1  0
 24 23  1  1
 24 25  1  0
 24 26  2  0
 24 27  1  0
 28 27  1  6
 28 29  2  0
 28 30  1  0
 28 31  1  0
 31 32  1  0
 32 33  1  0
 33 34  1  0
 33 35  1  0
 33 36  1  6
 36 37  1  0
 36 38  1  0
 38 39  2  0
 38 40  1  0
 40 41  1  0
 41 42  1  0
 42 43  1  0
 43 44  2  0
 43 45  1  0
 45 46  1  0
 46 47  1  0
 47 48  1  0
 48 49  1  0
 49 50  2  0
 49 51  1  0
 51 52  1  0
  3 53  1  0
  4 54  1  0
  6 55  1  1
  7 56  1  1
  8 57  1  0
  9 58  1  6
 13 59  1  0
 16 60  1  0
 16 61  1  0
 19 62  1  0
 21 63  1  6
 22 64  1  6
 22 65  1  0
 25 66  1  0
 30 67  1  0
 32 68  1  1
 32 69  1  0
 34 70  1  6
 34 71  1  0
 34 72  1  0
 35 73  1  1
 35 74  1  0
 35 75  1  0
 36 76  1  1
 37 77  1  0
 40 78  1  0
 41 79  1  6
 41 80  1  0
 42 81  1  6
 42 82  1  0
 45 83  1  0
 46 84  1  6
 46 85  1  0
 47 86  1  1
 47 87  1  0
 51 88  1  1
 51 89  1  0
 52 90  1  1
 52 91  1  0
 52 92  1  0
M  END
