1X8X_TYR_A_952
     RDKit          3D

 13 13  0  0  0  0  0  0  0  0999 V2000
    7.1879   30.7480   17.7253 N   0  0  0  0  0  0  0  0  0  0  0  0
    7.0239   29.4476   18.4406 C   0  0  2  0  0  0  0  0  0  0  0  0
    8.3794   28.7649   18.5773 C   0  0  0  0  0  0  0  0  0  0  0  0
    9.2472   29.0056   17.7133 O   0  0  0  0  0  0  0  0  0  0  0  0
    6.0722   28.5279   17.6668 C   0  0  0  0  0  0  0  0  0  0  0  0
    4.8368   29.2211   17.1434 C   0  0  0  0  0  0  0  0  0  0  0  0
    3.8317   29.6434   18.0114 C   0  0  0  0  0  0  0  0  0  0  0  0
    4.6731   29.4589   15.7793 C   0  0  0  0  0  0  0  0  0  0  0  0
    2.6932   30.2851   17.5344 C   0  0  0  0  0  0  0  0  0  0  0  0
    3.5390   30.0994   15.2943 C   0  0  0  0  0  0  0  0  0  0  0  0
    2.5540   30.5089   16.1756 C   0  0  0  0  0  0  0  0  0  0  0  0
    1.4233   31.1376   15.6947 O   0  0  0  0  0  0  0  0  0  0  0  0
    8.5579   28.0174   19.5619 O   0  0  0  0  0  0  0  0  0  0  0  0
  2  1  1  6
  2  3  1  0
  3  4  2  0
  2  5  1  0
  5  6  1  0
  6  7  2  0
  6  8  1  0
  7  9  1  0
  8 10  2  0
  9 11  2  0
 10 11  1  0
 11 12  1  0
  3 13  1  0
M  END
