1X8X_TYR_A_952
     RDKit          3D

 13 13  0  0  0  0  0  0  0  0999 V2000
    7.2140   30.6974   17.7521 N   0  0  0  0  0  0  0  0  0  0  0  0
    7.0188   29.3846   18.4362 C   0  0  2  0  0  0  0  0  0  0  0  0
    8.3577   28.6668   18.5566 C   0  0  0  0  0  0  0  0  0  0  0  0
    9.2313   28.9073   17.6986 O   0  0  0  0  0  0  0  0  0  0  0  0
    6.0459   28.5065   17.6407 C   0  0  0  0  0  0  0  0  0  0  0  0
    4.8277   29.2411   17.1340 C   0  0  0  0  0  0  0  0  0  0  0  0
    3.8323   29.6663   18.0118 C   0  0  0  0  0  0  0  0  0  0  0  0
    4.6704   29.5151   15.7759 C   0  0  0  0  0  0  0  0  0  0  0  0
    2.7097   30.3460   17.5503 C   0  0  0  0  0  0  0  0  0  0  0  0
    3.5521   30.1937   15.3063 C   0  0  0  0  0  0  0  0  0  0  0  0
    2.5767   30.6054   16.1971 C   0  0  0  0  0  0  0  0  0  0  0  0
    1.4614   31.2721   15.7314 O   0  0  0  0  0  0  0  0  0  0  0  0
    8.5177   27.8920   19.5231 O   0  0  0  0  0  0  0  0  0  0  0  0
  2  1  1  6
  2  3  1  0
  3  4  2  0
  2  5  1  0
  5  6  1  0
  6  7  2  0
  6  8  1  0
  7  9  1  0
  8 10  2  0
  9 11  2  0
 10 11  1  0
 11 12  1  0
  3 13  1  0
M  END
