1OQ5_CEL_A_701
     RDKit          3D

 40 42  0  0  0  0  0  0  0  0999 V2000
   14.2702    2.3722   16.5231 S   0  0  2  0  0  6  0  0  0  0  0  0
   15.4456    3.3785   15.6839 C   0  0  0  0  0  0  0  0  0  0  0  0
   16.8172    3.1624   15.8707 C   0  0  0  0  0  0  0  0  0  0  0  0
   17.7523    3.9536   15.1971 C   0  0  0  0  0  0  0  0  0  0  0  0
   17.3273    4.9762   14.3357 C   0  0  0  0  0  0  0  0  0  0  0  0
   15.9511    5.1693   14.1269 C   0  0  0  0  0  0  0  0  0  0  0  0
   15.0168    4.3783   14.8012 C   0  0  0  0  0  0  0  0  0  0  0  0
   18.2986    5.7746   13.6387 N   0  0  0  0  0  0  0  0  0  0  0  0
   18.1485    7.0251   13.1364 C   0  0  0  0  0  0  0  0  0  0  0  0
   16.9941    7.9260   13.3514 C   0  0  0  0  0  0  0  0  0  0  0  0
   16.7224    8.9523   12.4327 C   0  0  0  0  0  0  0  0  0  0  0  0
   15.6394    9.8131   12.6338 C   0  0  0  0  0  0  0  0  0  0  0  0
   14.8118    9.6591   13.7558 C   0  0  0  0  0  0  0  0  0  0  0  0
   13.6732   10.6067   13.9910 C   0  0  1  0  0  0  0  0  0  0  0  0
   15.1034    8.6581   14.6939 C   0  0  0  0  0  0  0  0  0  0  0  0
   16.1865    7.7978   14.4936 C   0  0  0  0  0  0  0  0  0  0  0  0
   19.3002    7.3676   12.4540 C   0  0  0  0  0  0  0  0  0  0  0  0
   20.1289    6.2729   12.6101 C   0  0  0  0  0  0  0  0  0  0  0  0
   21.4909    6.1144   12.0137 C   0  0  1  0  0  0  0  0  0  0  0  0
   21.8577    7.2736   11.3544 F   0  0  0  0  0  0  0  0  0  0  0  0
   22.4043    5.8544   13.0179 F   0  0  0  0  0  0  0  0  0  0  0  0
   21.4918    5.0651   11.1128 F   0  0  0  0  0  0  0  0  0  0  0  0
   19.4987    5.3152   13.3177 N   0  0  0  0  0  0  0  0  0  0  0  0
   14.7019    0.7088   16.3380 N   0  0  0  0  0  0  0  0  0  0  0  0
   12.9005    2.6016   15.9481 O   0  0  0  0  0  0  0  0  0  0  0  0
   14.2461    2.7295   17.9831 O   0  0  0  0  0  0  0  0  0  0  0  0
   17.1633    2.3809   16.5350 H   0  0  0  0  0  0  0  0  0  0  0  0
   18.8091    3.7783   15.3549 H   0  0  0  0  0  0  0  0  0  0  0  0
   15.6014    5.9228   13.4331 H   0  0  0  0  0  0  0  0  0  0  0  0
   13.9608    4.5413   14.6282 H   0  0  0  0  0  0  0  0  0  0  0  0
   17.3420    9.0805   11.5537 H   0  0  0  0  0  0  0  0  0  0  0  0
   15.4457   10.5986   11.9137 H   0  0  0  0  0  0  0  0  0  0  0  0
   12.7061   10.1318   13.7202 H   0  0  0  0  0  0  0  0  0  0  0  0
   13.6231   10.9007   15.0612 H   0  0  0  0  0  0  0  0  0  0  0  0
   13.8161   11.5165   13.3715 H   0  0  0  0  0  0  0  0  0  0  0  0
   14.4951    8.5463   15.5831 H   0  0  0  0  0  0  0  0  0  0  0  0
   16.4022    7.0431   15.2393 H   0  0  0  0  0  0  0  0  0  0  0  0
   19.5185    8.2950   11.9403 H   0  0  0  0  0  0  0  0  0  0  0  0
   13.8915    0.2313   15.8836 H   0  0  0  0  0  0  0  0  0  0  0  0
   14.7885    0.3074   17.2986 H   0  0  0  0  0  0  0  0  0  0  0  0
  1  2  1  0
  2  3  2  0
  3  4  1  0
  4  5  2  0
  5  6  1  0
  2  7  1  0
  6  7  2  0
  5  8  1  0
  8  9  1  0
  9 10  1  0
 10 11  2  0
 11 12  1  0
 12 13  2  0
 13 14  1  0
 13 15  1  0
 10 16  1  0
 15 16  2  0
  9 17  2  0
 17 18  1  0
 18 19  1  0
 19 20  1  6
 19 21  1  0
 19 22  1  0
  8 23  1  0
 18 23  2  0
  1 24  1  1
  1 25  2  0
  1 26  2  0
  3 27  1  0
  4 28  1  0
  6 29  1  0
  7 30  1  0
 11 31  1  0
 12 32  1  0
 14 33  1  6
 14 34  1  0
 14 35  1  0
 15 36  1  0
 16 37  1  0
 17 38  1  0
 24 39  1  0
 24 40  1  0
M  END
