7ZXV_45D_A_402
     RDKit          3D

 94 95  0  0  0  0  0  0  0  0999 V2000
   32.1900   19.2633  -15.4407 O   0  0  0  0  0  0  0  0  0  0  0  0
   14.7401    2.3256   -7.2147 O   0  0  0  0  0  0  0  0  0  0  0  0
   28.3639   20.3914  -16.7146 C   0  0  2  0  0  0  0  0  0  0  0  0
   12.8440    5.0157   -9.7893 C   0  0  1  0  0  0  0  0  0  0  0  0
   29.6420   20.7625  -17.5193 C   0  0  2  0  0  0  0  0  0  0  0  0
   12.2941    3.5795   -9.5663 C   0  0  2  0  0  0  0  0  0  0  0  0
   28.6881   20.1118  -15.2381 C   0  0  0  0  0  0  0  0  0  0  0  0
   14.3501    5.0809   -9.5051 C   0  0  0  0  0  0  0  0  0  0  0  0
   30.7865   19.7797  -17.2786 C   0  0  1  0  0  0  0  0  0  0  0  0
   12.6969    2.9999   -8.2134 C   0  0  2  0  0  0  0  0  0  0  0  0
   27.6930   19.1445  -17.3268 C   0  0  1  0  0  0  0  0  0  0  0  0
   27.3805   21.5800  -16.8355 C   0  0  1  0  0  0  0  0  0  0  0  0
   12.5416    5.4017  -11.2570 C   0  0  2  0  0  0  0  0  0  0  0  0
   12.1231    6.0146   -8.8582 C   0  0  1  0  0  0  0  0  0  0  0  0
   29.9512   19.8047  -14.8273 C   0  0  0  0  0  0  0  0  0  0  0  0
   14.9614    4.1863   -8.6834 C   0  0  0  0  0  0  0  0  0  0  0  0
   31.0448   19.6303  -15.8163 C   0  0  0  0  0  0  0  0  0  0  0  0
   14.1744    3.1228   -8.0101 C   0  0  0  0  0  0  0  0  0  0  0  0
   27.5450   20.0481  -14.2896 C   0  0  0  0  0  0  0  0  0  0  0  0
   15.1232    6.1996  -10.0980 C   0  0  0  0  0  0  0  0  0  0  0  0
   30.2714   19.5730  -13.3668 C   0  0  1  0  0  0  0  0  0  0  0  0
   16.4491    4.2629   -8.4213 C   0  0  1  0  0  0  0  0  0  0  0  0
   27.5492   19.1955  -13.2585 C   0  0  0  0  0  0  0  0  0  0  0  0
   15.9835    6.9199   -9.3675 C   0  0  0  0  0  0  0  0  0  0  0  0
   26.3733   18.9578  -12.3838 C   0  0  0  0  0  0  0  0  0  0  0  0
   16.8317    7.9931   -9.9521 C   0  0  0  0  0  0  0  0  0  0  0  0
   25.0890   19.7218  -12.5998 C   0  0  2  0  0  0  0  0  0  0  0  0
   16.3958    8.7060  -11.2086 C   0  0  2  0  0  0  0  0  0  0  0  0
   26.4436   17.9501  -11.4942 C   0  0  0  0  0  0  0  0  0  0  0  0
   18.0144    8.2648   -9.3642 C   0  0  0  0  0  0  0  0  0  0  0  0
   25.2977   17.4681  -10.6926 C   0  0  0  0  0  0  0  0  0  0  0  0
   19.0560    9.1117   -9.9824 C   0  0  0  0  0  0  0  0  0  0  0  0
   25.4253   16.3931   -9.9067 C   0  0  0  0  0  0  0  0  0  0  0  0
   19.8304    9.9168   -9.2430 C   0  0  0  0  0  0  0  0  0  0  0  0
   24.2749   15.7566   -9.2195 C   0  0  0  0  0  0  0  0  0  0  0  0
   20.9694   10.7043   -9.7887 C   0  0  0  0  0  0  0  0  0  0  0  0
   24.1176   14.4269   -9.3686 C   0  0  0  0  0  0  0  0  0  0  0  0
   21.4924   11.6838   -9.0186 C   0  0  0  0  0  0  0  0  0  0  0  0
   23.2729   16.5923   -8.4569 C   0  0  2  0  0  0  0  0  0  0  0  0
   21.5606   10.3511  -11.1397 C   0  0  2  0  0  0  0  0  0  0  0  0
   22.9256   13.6739   -8.9185 C   0  0  0  0  0  0  0  0  0  0  0  0
   22.7209   12.4299   -9.3613 C   0  0  0  0  0  0  0  0  0  0  0  0
   29.9918   21.7781  -17.2217 H   0  0  0  0  0  0  0  0  0  0  0  0
   29.4190   20.7972  -18.6133 H   0  0  0  0  0  0  0  0  0  0  0  0
   12.6855    2.9046  -10.3626 H   0  0  0  0  0  0  0  0  0  0  0  0
   11.1843    3.5736   -9.6453 H   0  0  0  0  0  0  0  0  0  0  0  0
   30.5452   18.7903  -17.7124 H   0  0  0  0  0  0  0  0  0  0  0  0
   31.6987   20.1580  -17.7868 H   0  0  0  0  0  0  0  0  0  0  0  0
   12.3992    1.9283   -8.1813 H   0  0  0  0  0  0  0  0  0  0  0  0
   12.1687    3.5262   -7.3882 H   0  0  0  0  0  0  0  0  0  0  0  0
   26.8022   19.4319  -17.9282 H   0  0  0  0  0  0  0  0  0  0  0  0
   28.4051   18.5905  -17.9769 H   0  0  0  0  0  0  0  0  0  0  0  0
   27.3515   18.4488  -16.5302 H   0  0  0  0  0  0  0  0  0  0  0  0
   27.0586   21.9251  -15.8276 H   0  0  0  0  0  0  0  0  0  0  0  0
   27.8595   22.4372  -17.3587 H   0  0  0  0  0  0  0  0  0  0  0  0
   26.4747   21.3063  -17.4207 H   0  0  0  0  0  0  0  0  0  0  0  0
   13.0702    6.3362  -11.5450 H   0  0  0  0  0  0  0  0  0  0  0  0
   11.4503    5.5702  -11.3983 H   0  0  0  0  0  0  0  0  0  0  0  0
   12.8602    4.5869  -11.9458 H   0  0  0  0  0  0  0  0  0  0  0  0
   12.7149    6.9494   -8.7590 H   0  0  0  0  0  0  0  0  0  0  0  0
   11.1249    6.2773   -9.2670 H   0  0  0  0  0  0  0  0  0  0  0  0
   11.9928    5.5911   -7.8394 H   0  0  0  0  0  0  0  0  0  0  0  0
   26.6683   20.6398  -14.5050 H   0  0  0  0  0  0  0  0  0  0  0  0
   14.9848    6.3985  -11.1532 H   0  0  0  0  0  0  0  0  0  0  0  0
   31.3541   19.3659  -13.2284 H   0  0  0  0  0  0  0  0  0  0  0  0
   30.0383   20.4692  -12.7512 H   0  0  0  0  0  0  0  0  0  0  0  0
   29.6931   18.7008  -12.9900 H   0  0  0  0  0  0  0  0  0  0  0  0
   16.6965    5.2500   -7.9798 H   0  0  0  0  0  0  0  0  0  0  0  0
   16.7864    3.4662   -7.7234 H   0  0  0  0  0  0  0  0  0  0  0  0
   17.0236    4.1277   -9.3623 H   0  0  0  0  0  0  0  0  0  0  0  0
   28.4552   18.6298  -13.0561 H   0  0  0  0  0  0  0  0  0  0  0  0
   16.1197    6.6583   -8.3237 H   0  0  0  0  0  0  0  0  0  0  0  0
   24.7658   20.2128  -11.6601 H   0  0  0  0  0  0  0  0  0  0  0  0
   24.3018   19.0282  -12.9528 H   0  0  0  0  0  0  0  0  0  0  0  0
   25.1834   20.5008  -13.3828 H   0  0  0  0  0  0  0  0  0  0  0  0
   16.4352    9.8088  -11.0750 H   0  0  0  0  0  0  0  0  0  0  0  0
   15.3385    8.4670  -11.4540 H   0  0  0  0  0  0  0  0  0  0  0  0
   17.0483    8.4148  -12.0566 H   0  0  0  0  0  0  0  0  0  0  0  0
   27.3849   17.4201  -11.3903 H   0  0  0  0  0  0  0  0  0  0  0  0
   18.2574    7.7845   -8.4236 H   0  0  0  0  0  0  0  0  0  0  0  0
   24.3275   17.9348  -10.8060 H   0  0  0  0  0  0  0  0  0  0  0  0
   19.2178    9.0217  -11.0433 H   0  0  0  0  0  0  0  0  0  0  0  0
   26.3854   15.8854   -9.8638 H   0  0  0  0  0  0  0  0  0  0  0  0
   19.6311    9.9748   -8.1800 H   0  0  0  0  0  0  0  0  0  0  0  0
   24.8674   13.8777   -9.9323 H   0  0  0  0  0  0  0  0  0  0  0  0
   20.9966   11.9476   -8.0934 H   0  0  0  0  0  0  0  0  0  0  0  0
   23.6710   17.6091   -8.2525 H   0  0  0  0  0  0  0  0  0  0  0  0
   23.0577   16.1393   -7.4668 H   0  0  0  0  0  0  0  0  0  0  0  0
   22.3290   16.6748   -9.0389 H   0  0  0  0  0  0  0  0  0  0  0  0
   22.3511   11.0557  -11.4699 H   0  0  0  0  0  0  0  0  0  0  0  0
   20.7912   10.4166  -11.9372 H   0  0  0  0  0  0  0  0  0  0  0  0
   21.9807    9.3243  -11.1124 H   0  0  0  0  0  0  0  0  0  0  0  0
   22.1701   14.1431   -8.2979 H   0  0  0  0  0  0  0  0  0  0  0  0
   23.4647   11.9722  -10.0014 H   0  0  0  0  0  0  0  0  0  0  0  0
  3  5  1  0
  4  6  1  0
  3  7  1  1
  4  8  1  6
  5  9  1  0
  6 10  1  0
  3 11  1  0
  3 12  1  0
  4 13  1  0
  4 14  1  0
  7 15  2  0
  8 16  2  0
  1 17  2  0
  9 17  1  0
 15 17  1  0
 16 18  1  0
 10 18  1  0
  2 18  2  0
  7 19  1  0
  8 20  1  0
 15 21  1  0
 16 22  1  0
 19 23  2  0
 20 24  2  0
 23 25  1  0
 24 26  1  0
 25 27  1  0
 26 28  1  0
 25 29  2  0
 26 30  2  0
 29 31  1  0
 30 32  1  0
 31 33  2  0
 32 34  2  0
 33 35  1  0
 34 36  1  0
 35 37  2  0
 36 38  2  0
 35 39  1  0
 36 40  1  0
 37 41  1  0
 41 42  2  0
 38 42  1  0
  5 43  1  1
  5 44  1  0
  6 45  1  6
  6 46  1  0
  9 47  1  6
  9 48  1  0
 10 49  1  6
 10 50  1  0
 11 51  1  6
 11 52  1  0
 11 53  1  0
 12 54  1  1
 12 55  1  0
 12 56  1  0
 13 57  1  6
 13 58  1  0
 13 59  1  0
 14 60  1  1
 14 61  1  0
 14 62  1  0
 19 63  1  0
 20 64  1  0
 21 65  1  6
 21 66  1  0
 21 67  1  0
 22 68  1  1
 22 69  1  0
 22 70  1  0
 23 71  1  0
 24 72  1  0
 27 73  1  1
 27 74  1  0
 27 75  1  0
 28 76  1  1
 28 77  1  0
 28 78  1  0
 29 79  1  0
 30 80  1  0
 31 81  1  0
 32 82  1  0
 33 83  1  0
 34 84  1  0
 37 85  1  0
 38 86  1  0
 39 87  1  1
 39 88  1  0
 39 89  1  0
 40 90  1  6
 40 91  1  0
 40 92  1  0
 41 93  1  0
 42 94  1  0
M  END
