7WUY_76N_A_529
     RDKit          3D

 30 34  0  0  0  0  0  0  0  0999 V2000
  -13.5174  134.6319   41.6842 C   0  0  2  0  0  0  0  0  0  0  0  0
  -12.6129  134.5617   40.6303 C   0  0  1  0  0  0  0  0  0  0  0  0
  -12.5529  135.7983   39.7701 C   0  0  1  0  0  0  0  0  0  0  0  0
  -12.4524  136.9817   40.6821 C   0  0  0  0  0  0  0  0  0  0  0  0
  -13.8278  137.1028   41.3538 C   0  0  0  0  0  0  0  0  0  0  0  0
  -14.1514  135.8746   42.1505 C   0  0  2  0  0  0  0  0  0  0  0  0
  -11.0485  134.4704   38.3421 C   0  0  0  0  0  0  0  0  0  0  0  0
  -10.0610  134.3285   37.3625 C   0  0  0  0  0  0  0  0  0  0  0  0
   -9.5798  135.4970   36.8250 C   0  0  0  0  0  0  0  0  0  0  0  0
  -10.9803  136.8557   38.1601 C   0  0  0  0  0  0  0  0  0  0  0  0
  -11.5020  135.7226   38.7353 C   0  0  0  0  0  0  0  0  0  0  0  0
   -9.6519  132.9986   36.9744 C   0  0  0  0  0  0  0  0  0  0  0  0
   -8.6058  131.5907   32.5406 C   0  0  0  0  0  0  0  0  0  0  0  0
   -9.9831  131.0359   32.2466 C   0  0  0  0  0  0  0  0  0  0  0  0
  -11.0127  131.6941   33.1340 C   0  0  0  0  0  0  0  0  0  0  0  0
  -10.3321  132.6025   34.1191 C   0  0  0  0  0  0  0  0  0  0  0  0
   -9.2942  131.7880   34.8593 C   0  0  1  0  0  0  0  0  0  0  0  0
   -8.2650  131.2000   33.9687 C   0  0  2  0  0  0  0  0  0  0  0  0
   -8.6505  132.6375   35.9744 C   0  0  2  0  0  0  0  0  0  0  0  0
   -7.6027  131.6692   36.5561 C   0  0  1  0  0  0  0  0  0  0  0  0
   -6.8591  131.4950   34.2922 C   0  0  0  0  0  0  0  0  0  0  0  0
   -6.4765  131.7355   35.5655 C   0  0  0  0  0  0  0  0  0  0  0  0
   -7.2110  131.9619   37.9518 C   0  0  0  0  0  0  0  0  0  0  0  0
  -10.0302  136.7234   37.2170 N   0  0  0  0  0  0  0  0  0  0  0  0
   -8.7083  135.4806   35.9502 O   0  0  0  0  0  0  0  0  0  0  0  0
  -11.6144  133.3449   38.9620 O   0  0  0  0  0  0  0  0  0  0  0  0
  -10.2374  132.0330   37.5762 O   0  0  0  0  0  0  0  0  0  0  0  0
  -12.0852  134.6029   41.9371 O   0  0  0  0  0  0  0  0  0  0  0  0
  -13.7945  136.1103   43.4787 O   0  0  0  0  0  0  0  0  0  0  0  0
  -13.8084  135.8476   39.1213 O   0  0  0  0  0  0  0  0  0  0  0  0
  1  2  1  0
  2  3  1  0
  4  3  1  6
  5  4  1  6
  5  6  1  0
  1  6  1  0
  7  8  2  0
  8  9  1  0
 10 11  2  0
  7 11  1  0
  3 11  1  0
  8 12  1  0
 14 13  1  1
 15 14  1  6
 16 15  1  1
 17 16  1  6
 13 18  1  1
 17 18  1  0
 19 12  1  1
 17 19  1  0
 19 20  1  0
 18 21  1  1
 20 22  1  6
 21 22  2  0
 23 20  1  1
  9 24  1  0
 10 24  1  0
  9 25  2  0
  7 26  1  0
 12 27  2  0
  2 28  1  1
  1 28  1  1
  6 29  1  1
  3 30  1  6
M  END
$$$$
