1SQN_NDR_B_2001
     RDKit          3D

 22 25  0  0  0  0  0  0  0  0999 V2000
    6.5391   18.4974    6.2862 O   0  0  0  0  0  0  0  0  0  0  0  0
    7.4107   19.0302    7.0200 C   0  0  0  0  0  0  0  0  0  0  0  0
    7.0706   19.8645    8.2092 C   0  0  0  0  0  0  0  0  0  0  0  0
    8.8267   18.8496    6.7313 C   0  0  0  0  0  0  0  0  0  0  0  0
    9.6663   19.8091    7.0841 C   0  0  0  0  0  0  0  0  0  0  0  0
   11.1138   19.6382    6.7956 C   0  0  0  0  0  0  0  0  0  0  0  0
    9.2508   21.0607    7.7577 C   0  0  2  0  0  0  0  0  0  0  0  0
    7.8215   21.1477    8.1105 C   0  0  0  0  0  0  0  0  0  0  0  0
    9.7558   22.1795    6.8569 C   0  0  2  0  0  0  0  0  0  0  0  0
   11.2480   22.1413    7.0019 C   0  0  1  0  0  0  0  0  0  0  0  0
   11.7477   20.9058    6.2884 C   0  0  0  0  0  0  0  0  0  0  0  0
    9.1018   23.4783    7.1901 C   0  0  0  0  0  0  0  0  0  0  0  0
    9.8725   24.6873    6.7660 C   0  0  0  0  0  0  0  0  0  0  0  0
   11.2999   24.5540    7.1653 C   0  0  2  0  0  0  0  0  0  0  0  0
   11.8490   23.3575    6.4108 C   0  0  1  0  0  0  0  0  0  0  0  0
   11.4042   24.3843    8.6560 C   0  0  0  0  0  0  0  0  0  0  0  0
   12.1901   25.6522    6.7003 C   0  0  1  0  0  0  0  0  0  0  0  0
   12.5088   26.4744    7.7784 O   0  0  0  0  0  0  0  0  0  0  0  0
   13.5012   24.9936    6.2558 C   0  0  0  0  0  0  0  0  0  0  0  0
   13.3146   23.5165    6.5934 C   0  0  0  0  0  0  0  0  0  0  0  0
   11.6182   26.4652    5.6336 C   0  0  0  0  0  0  0  0  0  0  0  0
   11.1405   27.1363    4.7727 C   0  0  0  0  0  0  0  0  0  0  0  0
  1  2  2  0
  2  3  1  0
  2  4  1  0
  4  5  2  0
  5  6  1  0
  5  7  1  0
  3  8  1  0
  7  8  1  6
  7  9  1  0
  9 10  1  0
  6 11  1  0
 10 11  1  6
  9 12  1  1
 12 13  1  0
 13 14  1  0
 10 15  1  0
 14 15  1  0
 14 16  1  1
 14 17  1  0
 17 18  1  1
 17 19  1  0
 15 20  1  1
 19 20  1  0
 17 21  1  0
 21 22  3  0
M  END
$$$$
