1SQN_NDR_B_2001
     RDKit          3D

 22 25  0  0  0  0  0  0  0  0999 V2000
    6.2870    0.5754    7.1518 O   0  0  0  0  0  0  0  0  0  0  0  0
    6.3789    0.6522    8.4038 C   0  0  0  0  0  0  0  0  0  0  0  0
    7.6662    0.9227    9.1079 C   0  0  0  0  0  0  0  0  0  0  0  0
    5.2003    0.4753    9.2409 C   0  0  0  0  0  0  0  0  0  0  0  0
    5.3636   -0.0154   10.4586 C   0  0  0  0  0  0  0  0  0  0  0  0
    4.1698   -0.2012   11.3235 C   0  0  0  0  0  0  0  0  0  0  0  0
    6.6781   -0.3972   11.0235 C   0  0  2  0  0  0  0  0  0  0  0  0
    7.8447   -0.1081   10.1688 C   0  0  0  0  0  0  0  0  0  0  0  0
    6.5257   -1.8582   11.4239 C   0  0  2  0  0  0  0  0  0  0  0  0
    5.5936   -1.8361   12.5986 C   0  0  1  0  0  0  0  0  0  0  0  0
    4.2128   -1.4999   12.0834 C   0  0  0  0  0  0  0  0  0  0  0  0
    7.8542   -2.4956   11.6581 C   0  0  0  0  0  0  0  0  0  0  0  0
    7.8155   -3.7042   12.5375 C   0  0  0  0  0  0  0  0  0  0  0  0
    6.9994   -3.4315   13.7516 C   0  0  2  0  0  0  0  0  0  0  0  0
    5.5875   -3.1551   13.2694 C   0  0  1  0  0  0  0  0  0  0  0  0
    7.5791   -2.2705   14.5118 C   0  0  0  0  0  0  0  0  0  0  0  0
    6.7992   -4.5990   14.6524 C   0  0  1  0  0  0  0  0  0  0  0  0
    7.5902   -4.4452   15.7884 O   0  0  0  0  0  0  0  0  0  0  0  0
    5.3429   -4.5398   15.1277 C   0  0  0  0  0  0  0  0  0  0  0  0
    4.8027   -3.2442   14.5274 C   0  0  0  0  0  0  0  0  0  0  0  0
    7.1013   -5.8832   14.0316 C   0  0  0  0  0  0  0  0  0  0  0  0
    7.3532   -6.9248   13.5107 C   0  0  0  0  0  0  0  0  0  0  0  0
  1  2  2  0
  2  3  1  0
  2  4  1  0
  4  5  2  0
  5  6  1  0
  5  7  1  0
  3  8  1  0
  7  8  1  6
  7  9  1  0
  9 10  1  0
  6 11  1  0
 10 11  1  6
  9 12  1  1
 12 13  1  0
 13 14  1  0
 10 15  1  0
 14 15  1  0
 14 16  1  1
 14 17  1  0
 17 18  1  1
 17 19  1  0
 15 20  1  1
 19 20  1  0
 17 21  1  0
 21 22  3  0
M  END
$$$$
