1SQN_NDR_B_2001
     RDKit          3D

 22 25  0  0  0  0  0  0  0  0999 V2000
   22.0966   22.8828   29.3116 O   0  0  0  0  0  0  0  0  0  0  0  0
   21.7838   21.6692   29.2048 C   0  0  0  0  0  0  0  0  0  0  0  0
   22.4136   20.7535   28.2095 C   0  0  0  0  0  0  0  0  0  0  0  0
   20.7662   21.0920   30.0721 C   0  0  0  0  0  0  0  0  0  0  0  0
   20.0501   20.0795   29.6115 C   0  0  0  0  0  0  0  0  0  0  0  0
   19.0082   19.4809   30.4857 C   0  0  0  0  0  0  0  0  0  0  0  0
   20.2220   19.4957   28.2615 C   0  0  2  0  0  0  0  0  0  0  0  0
   21.3287   20.0558   27.4637 C   0  0  0  0  0  0  0  0  0  0  0  0
   18.8495   19.5975   27.6103 C   0  0  2  0  0  0  0  0  0  0  0  0
   18.0013   18.6081   28.3525 C   0  0  1  0  0  0  0  0  0  0  0  0
   17.7430   19.1682   29.7326 C   0  0  0  0  0  0  0  0  0  0  0  0
   18.9363   19.4032   26.1337 C   0  0  0  0  0  0  0  0  0  0  0  0
   17.6611   18.9605   25.4906 C   0  0  0  0  0  0  0  0  0  0  0  0
   17.0575   17.8402   26.2620 C   0  0  2  0  0  0  0  0  0  0  0  0
   16.7248   18.3920   27.6357 C   0  0  1  0  0  0  0  0  0  0  0  0
   18.0182   16.6849   26.3296 C   0  0  0  0  0  0  0  0  0  0  0  0
   15.7261   17.3857   25.7767 C   0  0  1  0  0  0  0  0  0  0  0  0
   15.8672   16.1654   25.1204 O   0  0  0  0  0  0  0  0  0  0  0  0
   14.8770   17.1110   27.0233 C   0  0  0  0  0  0  0  0  0  0  0  0
   15.8348   17.3398   28.1899 C   0  0  0  0  0  0  0  0  0  0  0  0
   15.0668   18.3328   24.8857 C   0  0  0  0  0  0  0  0  0  0  0  0
   14.5366   19.1191   24.1643 C   0  0  0  0  0  0  0  0  0  0  0  0
  1  2  2  0
  2  3  1  0
  2  4  1  0
  4  5  2  0
  5  6  1  0
  5  7  1  0
  3  8  1  0
  7  8  1  6
  7  9  1  0
  9 10  1  0
  6 11  1  0
 10 11  1  1
  9 12  1  6
 12 13  1  0
 13 14  1  0
 10 15  1  0
 14 15  1  0
 14 16  1  1
 14 17  1  0
 17 18  1  6
 17 19  1  0
 15 20  1  1
 19 20  1  0
 17 21  1  0
 21 22  3  0
M  END
$$$$
