1SQN_NDR_B_2001
     RDKit          3D

 22 25  0  0  0  0  0  0  0  0999 V2000
   10.0379   -4.2808   13.4729 O   0  0  0  0  0  0  0  0  0  0  0  0
    9.7832   -3.0838   13.1827 C   0  0  0  0  0  0  0  0  0  0  0  0
   10.0377   -1.9501   14.1185 C   0  0  0  0  0  0  0  0  0  0  0  0
    9.2136   -2.7458   11.8856 C   0  0  0  0  0  0  0  0  0  0  0  0
    8.4391   -1.6767   11.7999 C   0  0  0  0  0  0  0  0  0  0  0  0
    7.8512   -1.3201   10.4827 C   0  0  0  0  0  0  0  0  0  0  0  0
    8.1154   -0.7997   12.9484 C   0  0  2  0  0  0  0  0  0  0  0  0
    8.7947   -1.1342   14.2140 C   0  0  0  0  0  0  0  0  0  0  0  0
    6.5946   -0.7921   13.0221 C   0  0  2  0  0  0  0  0  0  0  0  0
    6.1584   -0.0196   11.8129 C   0  0  1  0  0  0  0  0  0  0  0  0
    6.4156   -0.8827   10.5987 C   0  0  0  0  0  0  0  0  0  0  0  0
    6.1200   -0.2685   14.3359 C   0  0  0  0  0  0  0  0  0  0  0  0
    4.7254    0.2705   14.3213 C   0  0  0  0  0  0  0  0  0  0  0  0
    4.5339    1.1711   13.1522 C   0  0  2  0  0  0  0  0  0  0  0  0
    4.7205    0.3153   11.9132 C   0  0  1  0  0  0  0  0  0  0  0  0
    5.5158    2.3087   13.2119 C   0  0  0  0  0  0  0  0  0  0  0  0
    3.1488    1.6845   12.9718 C   0  0  1  0  0  0  0  0  0  0  0  0
    3.1017    3.0247   13.3483 O   0  0  0  0  0  0  0  0  0  0  0  0
    2.8615    1.6474   11.4664 C   0  0  0  0  0  0  0  0  0  0  0  0
    4.1775    1.1900   10.8424 C   0  0  0  0  0  0  0  0  0  0  0  0
    2.1413    0.9433   13.7211 C   0  0  0  0  0  0  0  0  0  0  0  0
    1.3293    0.3263   14.3373 C   0  0  0  0  0  0  0  0  0  0  0  0
  1  2  2  0
  2  3  1  0
  2  4  1  0
  4  5  2  0
  5  6  1  0
  5  7  1  0
  3  8  1  0
  7  8  1  1
  7  9  1  0
  9 10  1  0
  6 11  1  0
 10 11  1  6
  9 12  1  1
 12 13  1  0
 13 14  1  0
 10 15  1  0
 14 15  1  0
 14 16  1  1
 14 17  1  0
 17 18  1  1
 17 19  1  0
 15 20  1  6
 19 20  1  0
 17 21  1  0
 21 22  3  0
M  END
$$$$
