1SQN_NDR_B_2001
     RDKit          3D

 22 25  0  0  0  0  0  0  0  0999 V2000
   19.3198    1.4647   10.0003 O   0  0  0  0  0  0  0  0  0  0  0  0
   19.7907    1.7784   11.1236 C   0  0  0  0  0  0  0  0  0  0  0  0
   19.3351    1.1512   12.3984 C   0  0  0  0  0  0  0  0  0  0  0  0
   20.8286    2.7946   11.2292 C   0  0  0  0  0  0  0  0  0  0  0  0
   20.8933    3.5122   12.3387 C   0  0  0  0  0  0  0  0  0  0  0  0
   21.9473    4.5526   12.4601 C   0  0  0  0  0  0  0  0  0  0  0  0
   19.9701    3.3434   13.4841 C   0  0  2  0  0  0  0  0  0  0  0  0
   19.0014    2.2381   13.3614 C   0  0  0  0  0  0  0  0  0  0  0  0
   19.3484    4.7172   13.6951 C   0  0  2  0  0  0  0  0  0  0  0  0
   20.4672    5.5644   14.2240 C   0  0  1  0  0  0  0  0  0  0  0  0
   21.4283    5.8196   13.0855 C   0  0  0  0  0  0  0  0  0  0  0  0
   18.1319    4.6335   14.5546 C   0  0  0  0  0  0  0  0  0  0  0  0
   17.7708    5.9103   15.2438 C   0  0  0  0  0  0  0  0  0  0  0  0
   18.9759    6.5129   15.8755 C   0  0  2  0  0  0  0  0  0  0  0  0
   19.9353    6.8425   14.7471 C   0  0  1  0  0  0  0  0  0  0  0  0
   19.5720    5.5528   16.8678 C   0  0  0  0  0  0  0  0  0  0  0  0
   18.7601    7.8456   16.5017 C   0  0  1  0  0  0  0  0  0  0  0  0
   18.7470    7.7066   17.8875 O   0  0  0  0  0  0  0  0  0  0  0  0
   19.9926    8.6923   16.1632 C   0  0  0  0  0  0  0  0  0  0  0  0
   20.9170    7.7320   15.4190 C   0  0  0  0  0  0  0  0  0  0  0  0
   17.5316    8.5062   16.0772 C   0  0  0  0  0  0  0  0  0  0  0  0
   16.5235    9.0326   15.7218 C   0  0  0  0  0  0  0  0  0  0  0  0
  1  2  2  0
  2  3  1  0
  2  4  1  0
  4  5  2  0
  5  6  1  0
  5  7  1  0
  3  8  1  0
  7  8  1  6
  7  9  1  0
  9 10  1  0
  6 11  1  0
 10 11  1  6
  9 12  1  1
 12 13  1  0
 13 14  1  0
 10 15  1  0
 14 15  1  0
 14 16  1  1
 14 17  1  0
 17 18  1  1
 17 19  1  0
 15 20  1  1
 19 20  1  0
 17 21  1  0
 21 22  3  0
M  END
$$$$
