1SQN_NDR_B_2001
     RDKit          3D

 22 25  0  0  0  0  0  0  0  0999 V2000
    8.6604   23.4714   22.1175 O   0  0  0  0  0  0  0  0  0  0  0  0
    9.5697   23.0719   21.3458 C   0  0  0  0  0  0  0  0  0  0  0  0
    9.5698   21.7150   20.7258 C   0  0  0  0  0  0  0  0  0  0  0  0
   10.6908   23.9414   21.0167 C   0  0  0  0  0  0  0  0  0  0  0  0
   11.8557   23.3825   20.7325 C   0  0  0  0  0  0  0  0  0  0  0  0
   13.0082   24.2576   20.3950 C   0  0  0  0  0  0  0  0  0  0  0  0
   12.0889   21.9202   20.7291 C   0  0  2  0  0  0  0  0  0  0  0  0
   10.8975   21.0866   20.9756 C   0  0  0  0  0  0  0  0  0  0  0  0
   13.2352   21.7015   21.7070 C   0  0  2  0  0  0  0  0  0  0  0  0
   14.4359   22.2845   21.0231 C   0  0  1  0  0  0  0  0  0  0  0  0
   14.2870   23.7887   21.0359 C   0  0  0  0  0  0  0  0  0  0  0  0
   13.3426   20.2668   22.1015 C   0  0  0  0  0  0  0  0  0  0  0  0
   14.6923   19.8603   22.6004 C   0  0  0  0  0  0  0  0  0  0  0  0
   15.7526   20.3673   21.6877 C   0  0  2  0  0  0  0  0  0  0  0  0
   15.6714   21.8818   21.7311 C   0  0  1  0  0  0  0  0  0  0  0  0
   15.5410   19.8251   20.3009 C   0  0  0  0  0  0  0  0  0  0  0  0
   17.1477   20.1158   22.1404 C   0  0  1  0  0  0  0  0  0  0  0  0
   17.7048   19.0967   21.3716 O   0  0  0  0  0  0  0  0  0  0  0  0
   17.9463   21.3849   21.8210 C   0  0  0  0  0  0  0  0  0  0  0  0
   16.9507   22.2836   21.0919 C   0  0  0  0  0  0  0  0  0  0  0  0
   17.2569   19.7629   23.5508 C   0  0  0  0  0  0  0  0  0  0  0  0
   17.3345   19.4856   24.7070 C   0  0  0  0  0  0  0  0  0  0  0  0
  1  2  2  0
  2  3  1  0
  2  4  1  0
  4  5  2  0
  5  6  1  0
  5  7  1  0
  3  8  1  0
  7  8  1  1
  7  9  1  0
  9 10  1  0
  6 11  1  0
 10 11  1  1
  9 12  1  6
 12 13  1  0
 13 14  1  0
 10 15  1  0
 14 15  1  0
 14 16  1  6
 14 17  1  0
 17 18  1  6
 17 19  1  0
 15 20  1  6
 19 20  1  0
 17 21  1  0
 21 22  3  0
M  END
$$$$
