1SQN_NDR_B_2001
     RDKit          3D

 22 25  0  0  0  0  0  0  0  0999 V2000
   11.0429   -5.7413   15.8109 O   0  0  0  0  0  0  0  0  0  0  0  0
   10.0110   -5.6408   15.0988 C   0  0  0  0  0  0  0  0  0  0  0  0
   10.0544   -5.6034   13.6080 C   0  0  0  0  0  0  0  0  0  0  0  0
    8.6952   -5.5545   15.7171 C   0  0  0  0  0  0  0  0  0  0  0  0
    7.7446   -4.8916   15.0791 C   0  0  0  0  0  0  0  0  0  0  0  0
    6.3972   -4.7955   15.6984 C   0  0  0  0  0  0  0  0  0  0  0  0
    7.9390   -4.2296   13.7689 C   0  0  2  0  0  0  0  0  0  0  0  0
    9.2608   -4.4299   13.1462 C   0  0  0  0  0  0  0  0  0  0  0  0
    7.5563   -2.7745   14.0019 C   0  0  2  0  0  0  0  0  0  0  0  0
    6.0705   -2.7989   14.2041 C   0  0  1  0  0  0  0  0  0  0  0  0
    5.8007   -3.4210   15.5552 C   0  0  0  0  0  0  0  0  0  0  0  0
    8.0492   -1.9025   12.8962 C   0  0  0  0  0  0  0  0  0  0  0  0
    7.3058   -0.6141   12.7444 C   0  0  0  0  0  0  0  0  0  0  0  0
    5.8385   -0.8596   12.7773 C   0  0  2  0  0  0  0  0  0  0  0  0
    5.5261   -1.4239   14.1507 C   0  0  1  0  0  0  0  0  0  0  0  0
    5.4489   -1.8022   11.6720 C   0  0  0  0  0  0  0  0  0  0  0  0
    4.9933    0.3648   12.7427 C   0  0  1  0  0  0  0  0  0  0  0  0
    4.4153    0.4900   11.4817 O   0  0  0  0  0  0  0  0  0  0  0  0
    3.8406    0.1281   13.7255 C   0  0  0  0  0  0  0  0  0  0  0  0
    4.0466   -1.3047   14.2103 C   0  0  0  0  0  0  0  0  0  0  0  0
    5.7156    1.5909   13.0599 C   0  0  0  0  0  0  0  0  0  0  0  0
    6.2917    2.6005   13.3216 C   0  0  0  0  0  0  0  0  0  0  0  0
  1  2  2  0
  2  3  1  0
  2  4  1  0
  4  5  2  0
  5  6  1  0
  5  7  1  0
  3  8  1  0
  7  8  1  1
  7  9  1  0
  9 10  1  0
  6 11  1  0
 10 11  1  1
  9 12  1  6
 12 13  1  0
 13 14  1  0
 10 15  1  0
 14 15  1  0
 14 16  1  6
 14 17  1  0
 17 18  1  6
 17 19  1  0
 15 20  1  6
 19 20  1  0
 17 21  1  0
 21 22  3  0
M  END
$$$$
