1V4S_MRK_A_501
     RDKit          3D

 23 25  0  0  0  0  0  0  0  0999 V2000
   28.4604    3.0928   68.3507 S   0  0  0  0  0  0  0  0  0  0  0  0
   27.0011    3.4176   69.2152 C   0  0  0  0  0  0  0  0  0  0  0  0
   26.1544    4.1471   68.4320 C   0  0  0  0  0  0  0  0  0  0  0  0
   26.6259    4.4524   67.1793 N   0  0  0  0  0  0  0  0  0  0  0  0
   27.8546    3.9504   66.9949 C   0  0  0  0  0  0  0  0  0  0  0  0
   28.5111    4.1279   65.8102 N   0  0  0  0  0  0  0  0  0  0  0  0
   28.3596    3.3849   64.5871 C   0  0  0  0  0  0  0  0  0  0  0  0
   27.6811    2.3494   64.5432 O   0  0  0  0  0  0  0  0  0  0  0  0
   29.3547    3.1767   62.0900 C   0  0  0  0  0  0  0  0  0  0  0  0
   29.0488    3.9080   63.3081 C   0  0  0  0  0  0  0  0  0  0  0  0
   29.4138    5.3019   63.3544 C   0  0  0  0  0  0  0  0  0  0  0  0
   30.0459    5.9329   62.2639 C   0  0  0  0  0  0  0  0  0  0  0  0
   30.3419    5.2017   61.0792 C   0  0  0  0  0  0  0  0  0  0  0  0
   30.9543    5.7841   60.0052 F   0  0  0  0  0  0  0  0  0  0  0  0
   29.9929    3.8298   61.0044 C   0  0  0  0  0  0  0  0  0  0  0  0
   30.4338    7.6455   62.4426 S   0  0  0  0  0  0  0  0  0  0  0  0
   32.2182    8.7243   60.7107 N   0  0  0  0  0  0  0  0  0  0  0  0
   32.0616    8.0378   61.9084 C   0  0  0  0  0  0  0  0  0  0  0  0
   33.1703    7.6852   62.6437 N   0  0  0  0  0  0  0  0  0  0  0  0
   34.1558    8.2093   61.8189 C   0  0  0  0  0  0  0  0  0  0  0  0
   33.6021    8.8177   60.6882 C   0  0  0  0  0  0  0  0  0  0  0  0
   31.2083    9.2121   59.7444 C   0  0  0  0  0  0  0  0  0  0  0  0
   29.0619    1.8849   61.9174 N   0  0  0  0  0  0  0  0  0  0  0  0
  1  2  1  0
  2  3  2  0
  3  4  1  0
  1  5  1  0
  4  5  2  0
  5  6  1  0
  6  7  1  0
  7  8  2  0
  7 10  1  0
  9 10  2  0
 10 11  1  0
 11 12  2  0
 12 13  1  0
 13 14  1  0
  9 15  1  0
 13 15  2  0
 12 16  1  0
 16 18  1  0
 17 18  1  0
 18 19  2  0
 19 20  1  0
 17 21  1  0
 20 21  2  0
 17 22  1  0
  9 23  1  0
M  END
