7L6D_BMF_A_501
     RDKit          3D

 48 50  0  0  0  0  0  0  0  0999 V2000
   -5.7975    2.0971    1.1955 C   0  0  0  0  0  0  0  0  0  0  0  0
   -5.9880   -0.2292    0.4149 N   0  0  0  0  0  0  0  0  0  0  0  0
   -3.2764   -0.4036   -0.2284 C   0  0  0  0  0  0  0  0  0  0  0  0
   -0.8589   -0.5734    0.5006 C   0  0  0  0  0  0  0  0  0  0  0  0
   -3.4448   -1.3198    1.0612 C   0  0  0  0  0  0  0  0  0  0  0  0
   -3.8118    0.7775    0.3206 C   0  0  0  0  0  0  0  0  0  0  0  0
   -7.4330   -2.8737   -0.1521 C   0  0  0  0  0  0  0  0  0  0  0  0
   -7.5777    3.2352    2.3952 C   0  0  0  0  0  0  0  0  0  0  0  0
   -7.5036    5.6914    2.9029 C   0  0  0  0  0  0  0  0  0  0  0  0
   -6.8919    4.4559    2.2986 C   0  0  0  0  0  0  0  0  0  0  0  0
   -5.6390    4.5012    1.6430 C   0  0  0  0  0  0  0  0  0  0  0  0
   -4.9244    5.7455    1.5128 N   0  0  0  0  0  0  0  0  0  0  0  0
   -5.6884    7.2412    1.0739 S   0  0  2  0  0  6  0  0  0  0  0  0
   -7.4290    7.1792    1.4448 C   0  0  0  0  0  0  0  0  0  0  0  0
   -5.5260    7.4547   -0.4046 O   0  0  0  0  0  0  0  0  0  0  0  0
   -5.0406    8.3826    1.8060 O   0  0  0  0  0  0  0  0  0  0  0  0
   -5.1102    3.3183    1.0951 C   0  0  0  0  0  0  0  0  0  0  0  0
   -5.1959    0.8642    0.6269 C   0  0  0  0  0  0  0  0  0  0  0  0
   -5.4470   -1.3344   -0.0874 N   0  0  0  0  0  0  0  0  0  0  0  0
   -4.1610   -1.4686   -0.4055 C   0  0  0  0  0  0  0  0  0  0  0  0
   -1.8719   -0.5044   -0.5104 N   0  0  0  0  0  0  0  0  0  0  0  0
   -1.0872   -1.3529    1.6400 O   0  0  0  0  0  0  0  0  0  0  0  0
   -2.3849   -1.7707    2.0596 C   0  0  0  0  0  0  0  0  0  0  0  0
    0.2112    0.0844    0.3803 O   0  0  0  0  0  0  0  0  0  0  0  0
   -3.8930   -2.7181   -0.8346 N   0  0  0  0  0  0  0  0  0  0  0  0
   -5.0479   -3.3832   -0.7969 N   0  0  0  0  0  0  0  0  0  0  0  0
   -5.9911   -2.5318   -0.3317 C   0  0  0  0  0  0  0  0  0  0  0  0
   -7.0347    2.0681    1.8582 C   0  0  0  0  0  0  0  0  0  0  0  0
   -4.4391   -1.7022    1.3744 H   0  0  0  0  0  0  0  0  0  0  0  0
   -3.4880   -0.2117    1.0151 H   0  0  0  0  0  0  0  0  0  0  0  0
   -3.2078   -1.7177    0.0518 H   0  0  0  0  0  0  0  0  0  0  0  0
   -3.1487    1.6097    0.5172 H   0  0  0  0  0  0  0  0  0  0  0  0
   -7.7793   -2.5271    0.8440 H   0  0  0  0  0  0  0  0  0  0  0  0
   -8.0322   -2.3758   -0.9423 H   0  0  0  0  0  0  0  0  0  0  0  0
   -7.5770   -3.9723   -0.2223 H   0  0  0  0  0  0  0  0  0  0  0  0
   -8.5346    3.1809    2.8998 H   0  0  0  0  0  0  0  0  0  0  0  0
   -6.7703    6.1900    3.5713 H   0  0  0  0  0  0  0  0  0  0  0  0
   -7.8064    6.3912    2.0961 H   0  0  0  0  0  0  0  0  0  0  0  0
   -8.4027    5.4495    3.5088 H   0  0  0  0  0  0  0  0  0  0  0  0
   -3.8828    5.7570    1.5744 H   0  0  0  0  0  0  0  0  0  0  0  0
   -7.9262    8.0852    1.0410 H   0  0  0  0  0  0  0  0  0  0  0  0
   -7.5837    7.1395    2.5420 H   0  0  0  0  0  0  0  0  0  0  0  0
   -7.8742    6.2764    0.9783 H   0  0  0  0  0  0  0  0  0  0  0  0
   -4.1706    3.3487    0.5619 H   0  0  0  0  0  0  0  0  0  0  0  0
   -1.5763   -0.6641   -1.4998 H   0  0  0  0  0  0  0  0  0  0  0  0
   -2.6125   -1.3714    3.0720 H   0  0  0  0  0  0  0  0  0  0  0  0
   -2.3978   -2.8795    2.1162 H   0  0  0  0  0  0  0  0  0  0  0  0
   -7.5780    1.1412    1.9852 H   0  0  0  0  0  0  0  0  0  0  0  0
  3  6  4  0
  9 10  1  0
  8 10  4  0
 10 11  4  0
 11 12  1  0
 13 12  1  6
 13 14  1  0
 13 15  2  0
 13 16  2  0
 11 17  4  0
  1 17  4  0
  1 18  1  0
  6 18  4  0
  2 18  4  0
  2 19  4  0
  3 20  4  0
 19 20  4  0
  4 21  1  0
  3 21  1  0
  4 22  1  0
  5 23  1  0
 22 23  1  0
  4 24  2  0
 20 25  4  0
 25 26  4  0
 19 27  4  0
  7 27  1  0
 26 27  4  0
  8 28  4  0
  1 28  4  0
  5 29  1  0
  5 30  1  0
  5 31  1  0
  6 32  1  0
  7 33  1  0
  7 34  1  0
  7 35  1  0
  8 36  1  0
  9 37  1  0
  9 38  1  0
  9 39  1  0
 12 40  1  0
 14 41  1  0
 14 42  1  0
 14 43  1  0
 17 44  1  0
 21 45  1  0
 23 46  1  0
 23 47  1  0
 28 48  1  0
M  END
