7WUX_6OI_D_401
     RDKit          3D

 17 16  0  0  0  0  0  0  0  0999 V2000
   24.0350   -1.6129  -39.8631 N   0  0  0  0  0  0  0  0  0  0  0  0
   24.5486   -4.5630  -42.1693 C   0  0  0  0  0  0  0  0  0  0  0  0
   23.6105   -5.7437  -42.2323 C   0  0  1  0  0  0  0  0  0  0  0  0
   23.9830   -6.7498  -43.2717 C   0  0  2  0  0  0  0  0  0  0  0  0
   23.1257   -7.9669  -43.2972 C   0  0  0  0  0  0  0  0  0  0  0  0
   24.7322   -2.3732  -40.9168 C   0  0  2  0  0  0  0  0  0  0  0  0
   24.7641   -1.4789  -42.1013 C   0  0  0  0  0  0  0  0  0  0  0  0
   24.0545   -0.4402  -42.1049 O   0  0  0  0  0  0  0  0  0  0  0  0
   25.5370   -1.7140  -43.2250 O   0  0  0  0  0  0  0  0  0  0  0  0
   23.9512   -3.6205  -41.1478 C   0  0  0  0  0  0  0  0  0  0  0  0
   23.6316   -6.3678  -40.9868 O   0  0  0  0  0  0  0  0  0  0  0  0
   25.3552   -7.1539  -42.9974 N   0  0  0  0  0  0  0  0  0  0  0  0
   23.9280   -9.0502  -43.6564 O   0  0  0  0  0  0  0  0  0  0  0  0
   23.0569  -10.4835  -43.6876 S   0  0  1  0  0  0  0  0  0  0  0  0
   21.9672  -10.3230  -44.7222 O   0  0  0  0  0  0  0  0  0  0  0  0
   23.9203  -11.6523  -44.0475 O   0  0  0  0  0  0  0  0  0  0  0  0
   22.4002  -10.7235  -42.1706 O   0  0  0  0  0  0  0  0  0  0  0  0
  2  3  1  0
  3  4  1  0
  4  5  1  0
  6  1  1  1
  6  7  1  0
  7  8  2  0
  7  9  1  0
  2 10  1  0
  6 10  1  0
  3 11  1  1
  4 12  1  1
  5 13  1  0
 13 14  1  0
 14 15  2  0
 14 16  2  0
 14 17  1  1
M  END
$$$$
