7FB7_8NF_A_304
     RDKit          3D

  9  9  0  0  0  0  0  0  0  0999 V2000
   39.9733   32.5088   45.6843 C   0  0  0  0  0  0  0  0  0  0  0  0
   40.1570   33.4099   44.5393 C   0  0  0  0  0  0  0  0  0  0  0  0
   41.4007   33.9475   44.2978 C   0  0  0  0  0  0  0  0  0  0  0  0
   41.5502   34.7887   43.2203 C   0  0  0  0  0  0  0  0  0  0  0  0
   39.2939   34.5626   42.6470 C   0  0  0  0  0  0  0  0  0  0  0  0
   39.0696   33.7116   43.7086 C   0  0  0  0  0  0  0  0  0  0  0  0
   42.8934   35.3830   42.9410 C   0  0  0  0  0  0  0  0  0  0  0  0
   40.5166   35.0898   42.4114 N   0  0  0  0  0  0  0  0  0  0  0  0
   37.7816   33.1485   43.9672 N   0  0  0  0  0  0  0  0  0  0  0  0
  1  2  1  0
  2  3  2  0
  3  4  1  0
  5  6  2  0
  2  6  1  0
  4  7  1  0
  5  8  1  0
  4  8  2  0
  6  9  1  0
M  END
$$$$
