7ECR_SIN_C_508
     RDKit          3D

 14 13  0  0  0  0  0  0  0  0999 V2000
  -45.9088  -14.6584  -45.1916 C   0  0  0  0  0  0  0  0  0  0  0  0
  -45.0416  -14.1768  -44.4143 O   0  0  0  0  0  0  0  0  0  0  0  0
  -45.8710  -14.3561  -46.5491 O   0  0  0  0  0  0  0  0  0  0  0  0
  -47.0058  -15.5227  -44.6491 C   0  0  1  0  0  0  0  0  0  0  0  0
  -48.0809  -14.6915  -43.9409 C   0  0  2  0  0  0  0  0  0  0  0  0
  -48.8417  -13.8357  -44.9069 C   0  0  0  0  0  0  0  0  0  0  0  0
  -49.7002  -14.3545  -45.6696 O   0  0  0  0  0  0  0  0  0  0  0  0
  -48.5716  -12.4732  -44.9882 O   0  0  0  0  0  0  0  0  0  0  0  0
  -46.4580  -13.6264  -46.9353 H   0  0  0  0  0  0  0  0  0  0  0  0
  -47.4619  -16.1115  -45.4746 H   0  0  0  0  0  0  0  0  0  0  0  0
  -46.5716  -16.2445  -43.9240 H   0  0  0  0  0  0  0  0  0  0  0  0
  -47.6149  -14.0519  -43.1599 H   0  0  0  0  0  0  0  0  0  0  0  0
  -48.7904  -15.3785  -43.4307 H   0  0  0  0  0  0  0  0  0  0  0  0
  -47.7940  -12.1298  -45.5389 H   0  0  0  0  0  0  0  0  0  0  0  0
  1  2  2  0
  1  3  1  0
  1  4  1  0
  4  5  1  0
  5  6  1  0
  6  7  2  0
  6  8  1  0
  3  9  1  0
  4 10  1  6
  4 11  1  0
  5 12  1  1
  5 13  1  0
  8 14  1  0
M  END
