7LEV_0JO_B_406
     RDKit          3D

 34 34  0  0  0  0  0  0  0  0999 V2000
   10.9951    0.3345   24.2718 O   0  0  0  0  0  0  0  0  0  0  0  0
   10.1322   -0.5686   24.4275 C   0  0  0  0  0  0  0  0  0  0  0  0
    9.8964   -1.0205   25.5785 O   0  0  0  0  0  0  0  0  0  0  0  0
    9.3724   -1.1174   23.2206 C   0  0  0  0  0  0  0  0  0  0  0  0
   10.0086   -1.8244   22.3081 C   0  0  0  0  0  0  0  0  0  0  0  0
    7.9514   -0.8605   23.0785 N   0  0  0  0  0  0  0  0  0  0  0  0
    7.1370   -1.4149   23.8483 C   0  0  0  0  0  0  0  0  0  0  0  0
    5.6414   -1.1469   23.7004 C   0  0  0  0  0  0  0  0  0  0  0  0
    4.7442   -1.9318   24.3479 C   0  0  0  0  0  0  0  0  0  0  0  0
    5.1876   -2.9887   25.1537 O   0  0  0  0  0  0  0  0  0  0  0  0
    3.3881   -1.6886   24.2131 C   0  0  0  0  0  0  0  0  0  0  0  0
    2.3776   -2.5722   24.9419 C   0  0  0  0  0  0  0  0  0  0  0  0
    2.9583   -0.6689   23.4360 N   0  0  0  0  0  0  0  0  0  0  0  0
    3.8518    0.1152   22.7887 C   0  0  0  0  0  0  0  0  0  0  0  0
    5.2098   -0.1254   22.9217 C   0  0  0  0  0  0  0  0  0  0  0  0
    6.2185    0.7619   22.1909 C   0  0  0  0  0  0  0  0  0  0  0  0
    7.2483    1.1173   23.0675 O   0  0  0  0  0  0  0  0  0  0  0  0
    8.6162    0.1952   23.0879 P   0  0  1  0  0  5  0  0  0  0  0  0
    9.0762    0.0106   24.5141 O   0  0  0  0  0  0  0  0  0  0  0  0
    8.3241   -1.1530   22.4754 O   0  0  0  0  0  0  0  0  0  0  0  0
    9.7016    0.8835   22.2941 O   0  0  0  0  0  0  0  0  0  0  0  0
    9.2541   -1.6926   25.6950 H   0  0  0  0  0  0  0  0  0  0  0  0
   11.0188   -2.0070   22.4095 H   0  0  0  0  0  0  0  0  0  0  0  0
    9.4964   -2.1955   21.4925 H   0  0  0  0  0  0  0  0  0  0  0  0
    7.4759   -2.0540   24.5842 H   0  0  0  0  0  0  0  0  0  0  0  0
    6.1050   -3.1540   25.2454 H   0  0  0  0  0  0  0  0  0  0  0  0
    2.8968   -3.3201   25.5038 H   0  0  0  0  0  0  0  0  0  0  0  0
    1.7363   -3.0446   24.2276 H   0  0  0  0  0  0  0  0  0  0  0  0
    1.7916   -1.9712   25.6052 H   0  0  0  0  0  0  0  0  0  0  0  0
    3.5221    0.8927   22.1956 H   0  0  0  0  0  0  0  0  0  0  0  0
    5.7278    1.6457   21.8401 H   0  0  0  0  0  0  0  0  0  0  0  0
    6.6270    0.2272   21.3596 H   0  0  0  0  0  0  0  0  0  0  0  0
    7.6273   -1.5949   22.9849 H   0  0  0  0  0  0  0  0  0  0  0  0
    9.8894    1.7498   22.6877 H   0  0  0  0  0  0  0  0  0  0  0  0
  1  2  2  0
  2  3  1  0
  2  4  1  0
  4  5  2  3
  4  6  1  0
  6  7  2  3
  7  8  1  0
  8  9  4  0
  9 10  1  0
  9 11  4  0
 11 12  1  0
 11 13  4  0
 13 14  4  0
  8 15  4  0
 14 15  4  0
 15 16  1  0
 16 17  1  0
 18 17  1  1
 18 19  2  0
 18 20  1  0
 18 21  1  0
  3 22  1  0
  5 23  1  0
  5 24  1  0
  7 25  1  0
 10 26  1  0
 12 27  1  0
 12 28  1  0
 12 29  1  0
 14 30  1  0
 16 31  1  0
 16 32  1  0
 20 33  1  0
 21 34  1  0
M  END
