1R9O_FLP_A_501
     RDKit          3D

 18 19  0  0  0  0  0  0  0  0999 V2000
   16.6625   29.6861  -16.6675 C   0  0  0  0  0  0  0  0  0  0  0  0
   17.6243   29.2016  -17.5376 C   0  0  0  0  0  0  0  0  0  0  0  0
   18.4165   28.1153  -17.1549 C   0  0  0  0  0  0  0  0  0  0  0  0
   18.2572   27.5106  -15.9150 C   0  0  0  0  0  0  0  0  0  0  0  0
   17.2821   28.0273  -15.0736 C   0  0  0  0  0  0  0  0  0  0  0  0
   16.4865   29.1002  -15.4292 C   0  0  0  0  0  0  0  0  0  0  0  0
   19.4461   27.5908  -18.0772 C   0  0  0  0  0  0  0  0  0  0  0  0
   19.6500   26.2229  -18.2146 C   0  0  0  0  0  0  0  0  0  0  0  0
   20.6209   25.7357  -19.0845 C   0  0  0  0  0  0  0  0  0  0  0  0
   21.3959   26.6113  -19.8240 C   0  0  0  0  0  0  0  0  0  0  0  0
   21.1922   27.9873  -19.6870 C   0  0  0  0  0  0  0  0  0  0  0  0
   20.2314   28.4706  -18.8262 C   0  0  0  0  0  0  0  0  0  0  0  0
   22.4371   26.0871  -20.7569 C   0  0  2  0  0  0  0  0  0  0  0  0
   23.4423   25.3639  -19.8934 C   0  0  0  0  0  0  0  0  0  0  0  0
   23.0367   27.1985  -21.5137 C   0  0  0  0  0  0  0  0  0  0  0  0
   23.8331   27.9913  -20.9534 O   0  0  0  0  0  0  0  0  0  0  0  0
   22.7098   27.3518  -22.8403 O   0  0  0  0  0  0  0  0  0  0  0  0
   20.0284   29.8235  -18.6890 F   0  0  0  0  0  0  0  0  0  0  0  0
  1  2  2  0
  2  3  1  0
  3  4  2  0
  4  5  1  0
  1  6  1  0
  5  6  2  0
  3  7  1  0
  7  8  2  0
  8  9  1  0
  9 10  2  0
 10 11  1  0
  7 12  1  0
 11 12  2  0
 10 13  1  0
 13 14  1  1
 13 15  1  0
 15 16  2  0
 15 17  1  0
 12 18  1  0
M  END
$$$$
