1R9O_FLP_A_501
     RDKit          3D

 18 19  0  0  0  0  0  0  0  0999 V2000
   23.8049   16.9626    7.7611 C   0  0  0  0  0  0  0  0  0  0  0  0
   23.8309   16.5518    6.4392 C   0  0  0  0  0  0  0  0  0  0  0  0
   22.6743   16.0242    5.8576 C   0  0  0  0  0  0  0  0  0  0  0  0
   21.4959   15.9038    6.5823 C   0  0  0  0  0  0  0  0  0  0  0  0
   21.5132   16.3273    7.9037 C   0  0  0  0  0  0  0  0  0  0  0  0
   22.6437   16.8520    8.5009 C   0  0  0  0  0  0  0  0  0  0  0  0
   22.6923   15.5829    4.4467 C   0  0  0  0  0  0  0  0  0  0  0  0
   23.8055   14.9438    3.9137 C   0  0  0  0  0  0  0  0  0  0  0  0
   23.8160   14.5309    2.5848 C   0  0  0  0  0  0  0  0  0  0  0  0
   22.7144   14.7532    1.7778 C   0  0  0  0  0  0  0  0  0  0  0  0
   21.5940   15.3958    2.3122 C   0  0  0  0  0  0  0  0  0  0  0  0
   21.5827   15.8049    3.6276 C   0  0  0  0  0  0  0  0  0  0  0  0
   22.7271   14.3096    0.3522 C   0  0  2  0  0  0  0  0  0  0  0  0
   22.4742   15.5495   -0.4710 C   0  0  0  0  0  0  0  0  0  0  0  0
   21.7044   13.2718    0.1414 C   0  0  0  0  0  0  0  0  0  0  0  0
   20.5005   13.5903   -0.0192 O   0  0  0  0  0  0  0  0  0  0  0  0
   22.0903   11.9524    0.1238 O   0  0  0  0  0  0  0  0  0  0  0  0
   20.4823   16.4372    4.1565 F   0  0  0  0  0  0  0  0  0  0  0  0
  1  2  2  0
  2  3  1  0
  3  4  2  0
  4  5  1  0
  1  6  1  0
  5  6  2  0
  3  7  1  0
  7  8  2  0
  8  9  1  0
  9 10  2  0
 10 11  1  0
  7 12  1  0
 11 12  2  0
 10 13  1  0
 13 14  1  6
 13 15  1  0
 15 16  2  0
 15 17  1  0
 12 18  1  0
M  END
$$$$
