1R9O_FLP_A_501
     RDKit          3D

 18 19  0  0  0  0  0  0  0  0999 V2000
   17.4764   29.5970  -17.9964 C   0  0  0  0  0  0  0  0  0  0  0  0
   18.6622   29.0367  -17.5527 C   0  0  0  0  0  0  0  0  0  0  0  0
   18.6834   28.3326  -16.3452 C   0  0  0  0  0  0  0  0  0  0  0  0
   17.5346   28.1837  -15.5796 C   0  0  0  0  0  0  0  0  0  0  0  0
   16.3677   28.7607  -16.0606 C   0  0  0  0  0  0  0  0  0  0  0  0
   16.3215   29.4614  -17.2511 C   0  0  0  0  0  0  0  0  0  0  0  0
   19.9448   27.7308  -15.8632 C   0  0  0  0  0  0  0  0  0  0  0  0
   19.9459   26.5024  -15.2130 C   0  0  0  0  0  0  0  0  0  0  0  0
   21.1368   25.9413  -14.7617 C   0  0  0  0  0  0  0  0  0  0  0  0
   22.3361   26.6031  -14.9563 C   0  0  0  0  0  0  0  0  0  0  0  0
   22.3368   27.8386  -15.6099 C   0  0  0  0  0  0  0  0  0  0  0  0
   21.1585   28.3948  -16.0571 C   0  0  0  0  0  0  0  0  0  0  0  0
   23.6129   25.9999  -14.4715 C   0  0  2  0  0  0  0  0  0  0  0  0
   24.0441   26.8343  -13.2895 C   0  0  0  0  0  0  0  0  0  0  0  0
   24.6089   25.9969  -15.5557 C   0  0  0  0  0  0  0  0  0  0  0  0
   25.3108   27.0146  -15.7757 O   0  0  0  0  0  0  0  0  0  0  0  0
   24.7556   24.8637  -16.3201 O   0  0  0  0  0  0  0  0  0  0  0  0
   21.1557   29.6099  -16.7005 F   0  0  0  0  0  0  0  0  0  0  0  0
  1  2  2  0
  2  3  1  0
  3  4  2  0
  4  5  1  0
  1  6  1  0
  5  6  2  0
  3  7  1  0
  7  8  2  0
  8  9  1  0
  9 10  2  0
 10 11  1  0
  7 12  1  0
 11 12  2  0
 10 13  1  0
 13 14  1  1
 13 15  1  0
 15 16  2  0
 15 17  1  0
 12 18  1  0
M  END
$$$$
