1R9O_FLP_A_501
     RDKit          3D

 18 19  0  0  0  0  0  0  0  0999 V2000
    1.7465   15.6374   -1.2560 C   0  0  0  0  0  0  0  0  0  0  0  0
    2.0853   14.3510   -0.8720 C   0  0  0  0  0  0  0  0  0  0  0  0
    1.9703   13.3038   -1.7907 C   0  0  0  0  0  0  0  0  0  0  0  0
    1.5215   13.5291   -3.0853 C   0  0  0  0  0  0  0  0  0  0  0  0
    1.1926   14.8328   -3.4290 C   0  0  0  0  0  0  0  0  0  0  0  0
    1.2978   15.8847   -2.5387 C   0  0  0  0  0  0  0  0  0  0  0  0
    2.3296   11.9268   -1.3900 C   0  0  0  0  0  0  0  0  0  0  0  0
    1.9292   11.4142   -0.1617 C   0  0  0  0  0  0  0  0  0  0  0  0
    2.2708   10.1172    0.2095 C   0  0  0  0  0  0  0  0  0  0  0  0
    3.0152    9.3220   -0.6435 C   0  0  0  0  0  0  0  0  0  0  0  0
    3.4187    9.8359   -1.8791 C   0  0  0  0  0  0  0  0  0  0  0  0
    3.0811   11.1196   -2.2475 C   0  0  0  0  0  0  0  0  0  0  0  0
    3.3809    7.9306   -0.2439 C   0  0  2  0  0  0  0  0  0  0  0  0
    4.8679    7.8095   -0.4744 C   0  0  0  0  0  0  0  0  0  0  0  0
    2.6045    6.9618   -1.0351 C   0  0  0  0  0  0  0  0  0  0  0  0
    1.6958    6.2843   -0.4949 O   0  0  0  0  0  0  0  0  0  0  0  0
    2.8917    6.8132   -2.3714 O   0  0  0  0  0  0  0  0  0  0  0  0
    3.4764   11.6282   -3.4621 F   0  0  0  0  0  0  0  0  0  0  0  0
  1  2  2  0
  2  3  1  0
  3  4  2  0
  4  5  1  0
  1  6  1  0
  5  6  2  0
  3  7  1  0
  7  8  2  0
  8  9  1  0
  9 10  2  0
 10 11  1  0
  7 12  1  0
 11 12  2  0
 10 13  1  0
 13 14  1  6
 13 15  1  0
 15 16  2  0
 15 17  1  0
 12 18  1  0
M  END
$$$$
