7BLG_GAL_A_201
     RDKit          3D

 12 12  0  0  0  0  0  0  0  0999 V2000
  -29.3495   -1.6552  -18.1606 C   0  0  2  0  0  0  0  0  0  0  0  0
  -27.9375   -1.9340  -17.7351 C   0  0  1  0  0  0  0  0  0  0  0  0
  -27.9477   -2.8161  -16.4920 C   0  0  2  0  0  0  0  0  0  0  0  0
  -28.8045   -4.0052  -16.8805 C   0  0  2  0  0  0  0  0  0  0  0  0
  -30.2023   -3.5077  -17.0513 C   0  0  1  0  0  0  0  0  0  0  0  0
  -30.9269   -3.7523  -15.7199 C   0  0  0  0  0  0  0  0  0  0  0  0
  -29.5083   -0.2681  -18.1882 O   0  0  0  0  0  0  0  0  0  0  0  0
  -27.3459   -2.7029  -18.7452 O   0  0  0  0  0  0  0  0  0  0  0  0
  -28.4287   -2.1363  -15.3864 O   0  0  0  0  0  0  0  0  0  0  0  0
  -28.7174   -5.0124  -15.9262 O   0  0  0  0  0  0  0  0  0  0  0  0
  -30.3016   -2.1621  -17.3059 O   0  0  0  0  0  0  0  0  0  0  0  0
  -32.2865   -3.9534  -15.9368 O   0  0  0  0  0  0  0  0  0  0  0  0
  1  2  1  0
  2  3  1  0
  3  4  1  0
  4  5  1  0
  5  6  1  1
  1  7  1  1
  2  8  1  6
  3  9  1  1
  4 10  1  1
  1 11  1  0
  5 11  1  0
  6 12  1  0
M  END
$$$$
