8SLG_G5A_B_504
     RDKit          3D

 27 29  0  0  0  0  0  0  0  0999 V2000
  -27.1420   38.6626   15.0065 C   0  0  0  0  0  0  0  0  0  0  0  0
  -24.7156   38.6417   15.0603 N   0  0  0  0  0  0  0  0  0  0  0  0
  -27.1317   37.6334   15.6597 O   0  0  0  0  0  0  0  0  0  0  0  0
  -29.6280   39.1697   15.6085 S   0  0  1  0  0  0  0  0  0  0  0  0
  -38.1084   37.2250   15.4929 N   0  0  0  0  0  0  0  0  0  0  0  0
  -37.7779   37.0157   14.2165 C   0  0  0  0  0  0  0  0  0  0  0  0
  -36.5801   37.0418   13.6471 N   0  0  0  0  0  0  0  0  0  0  0  0
  -35.6357   37.3251   14.5536 C   0  0  0  0  0  0  0  0  0  0  0  0
  -35.8172   37.5660   15.8953 C   0  0  0  0  0  0  0  0  0  0  0  0
  -37.1327   37.5129   16.3831 C   0  0  0  0  0  0  0  0  0  0  0  0
  -37.4641   37.7242   17.6514 N   0  0  0  0  0  0  0  0  0  0  0  0
  -34.5969   37.8223   16.5034 N   0  0  0  0  0  0  0  0  0  0  0  0
  -33.7185   37.7331   15.5326 C   0  0  0  0  0  0  0  0  0  0  0  0
  -34.2934   37.4303   14.3272 N   0  0  0  0  0  0  0  0  0  0  0  0
  -25.8866   39.1944   14.3758 C   0  0  0  0  0  0  0  0  0  0  0  0
  -33.6484   37.2579   13.0380 C   0  0  1  0  0  0  0  0  0  0  0  0
  -29.2936   38.6025   16.8555 O   0  0  0  0  0  0  0  0  0  0  0  0
  -33.7650   38.4884   12.1435 C   0  0  2  0  0  0  0  0  0  0  0  0
  -33.9796   38.1061   10.8059 O   0  0  0  0  0  0  0  0  0  0  0  0
  -30.3181   40.3970   15.5494 O   0  0  0  0  0  0  0  0  0  0  0  0
  -32.4131   39.1732   12.3462 C   0  0  2  0  0  0  0  0  0  0  0  0
  -32.0468   39.9568   11.2212 O   0  0  0  0  0  0  0  0  0  0  0  0
  -28.2411   39.3730   14.7932 N   0  0  0  0  0  0  0  0  0  0  0  0
  -31.4834   37.9690   12.5172 C   0  0  2  0  0  0  0  0  0  0  0  0
  -32.2793   37.0154   13.2578 O   0  0  0  0  0  0  0  0  0  0  0  0
  -30.2007   38.2333   13.2654 C   0  0  0  0  0  0  0  0  0  0  0  0
  -30.4594   38.2007   14.7014 O   0  0  0  0  0  0  0  0  0  0  0  0
  1  3  2  0
  5  6  2  0
  6  7  1  0
  7  8  2  0
  8  9  1  0
  9 10  2  0
  5 10  1  0
 10 11  1  0
  9 12  1  0
 12 13  2  0
 13 14  1  0
  8 14  1  0
  2 15  1  0
  1 15  1  0
 16 14  1  1
  4 17  2  0
 16 18  1  0
 18 19  1  6
  4 20  2  0
 18 21  1  0
 21 22  1  6
  1 23  1  0
  4 23  1  6
 21 24  1  0
 24 25  1  0
 16 25  1  0
 24 26  1  1
  4 27  1  0
 26 27  1  0
M  END
