
     RDKit          3D

 25 28  0  0  0  0  0  0  0  0999 V2000
    1.1692    7.6081   -4.2135 N   0  0  0  0  0  0  0  0  0  0  0  0
    3.6202    4.7747   -6.1295 N   0  0  0  0  0  0  0  0  0  0  0  0
    0.8732    2.7330   -7.2914 C   0  0  0  0  0  0  0  0  0  0  0  0
    0.9733    2.9171   -5.9072 C   0  0  0  0  0  0  0  0  0  0  0  0
    1.4574    1.8792   -5.1027 C   0  0  0  0  0  0  0  0  0  0  0  0
    0.6110    4.1937   -5.3108 C   0  0  0  0  0  0  0  0  0  0  0  0
    0.7252    6.3814   -4.5261 C   0  0  0  0  0  0  0  0  0  0  0  0
    2.4378    7.7768   -4.5794 C   0  0  0  0  0  0  0  0  0  0  0  0
    4.8504    4.4268   -5.4448 C   0  0  0  0  0  0  0  0  0  0  0  0
    7.1058    4.0324   -6.5306 C   0  0  0  0  0  0  0  0  0  0  0  0
    7.3829    2.3766   -8.2755 C   0  0  0  0  0  0  0  0  0  0  0  0
    1.8477    0.6704   -5.6806 C   0  0  0  0  0  0  0  0  0  0  0  0
    2.7778    5.6857   -5.5033 C   0  0  0  0  0  0  0  0  0  0  0  0
   -0.6626    4.3796   -4.8077 C   0  0  0  0  0  0  0  0  0  0  0  0
    5.7485    3.6948   -6.4156 C   0  0  0  0  0  0  0  0  0  0  0  0
    7.9080    3.3681   -7.4555 C   0  0  0  0  0  0  0  0  0  0  0  0
    6.0342    2.0415   -8.1757 C   0  0  0  0  0  0  0  0  0  0  0  0
    5.2195    2.6995   -7.2529 C   0  0  0  0  0  0  0  0  0  0  0  0
    1.7504    0.4926   -7.0602 C   0  0  0  0  0  0  0  0  0  0  0  0
    1.2614    1.5212   -7.8650 C   0  0  0  0  0  0  0  0  0  0  0  0
    1.4410    5.3708   -5.1546 C   0  0  0  0  0  0  0  0  0  0  0  0
    3.2518    6.9123   -5.1959 N   0  0  0  0  0  0  0  0  0  0  0  0
    9.2316    3.6676   -7.5917 O   0  0  0  0  0  0  0  0  0  0  0  0
   -0.8759    5.9387   -4.1488 S   0  0  0  0  0  0  0  0  0  0  0  0
    3.1146    9.3092   -4.2351 Cl  0  0  0  0  0  0  0  0  0  0  0  0
  3  4  4  0
  4  5  4  0
  4  6  1  0
  1  7  4  0
  1  8  4  0
  2  9  1  0
  5 12  4  0
  2 13  1  0
  6 14  4  0
 10 15  4  0
  9 15  1  0
 11 16  4  0
 10 16  4  0
 11 17  4  0
 17 18  4  0
 15 18  4  0
 12 19  4  0
 19 20  4  0
  3 20  4  0
  6 21  4  0
 13 21  4  0
  7 21  4  0
 13 22  4  0
  8 22  4  0
 16 23  1  0
 14 24  4  0
  7 24  4  0
  8 25  1  0
M  END
