
     RDKit          3D

 10 10  0  0  0  0  0  0  0  0999 V2000
   11.0712   22.6702   -6.3231 C   0  0  0  0  0  0  0  0  0  0  0  0
   10.4267   25.1054   -6.0841 C   0  0  0  0  0  0  0  0  0  0  0  0
   10.9999   26.4544   -6.2289 C   0  0  0  0  0  0  0  0  0  0  0  0
   12.3507   26.6259   -6.5016 C   0  0  0  0  0  0  0  0  0  0  0  0
   12.1308   28.9198   -6.5231 C   0  0  0  0  0  0  0  0  0  0  0  0
   10.7737   28.8457   -6.2429 C   0  0  0  0  0  0  0  0  0  0  0  0
   10.1968   27.5872   -6.0937 C   0  0  0  0  0  0  0  0  0  0  0  0
   11.0314   24.0566   -6.7382 N   0  0  0  0  0  0  0  0  0  0  0  0
   12.9328   27.8397   -6.6598 N   0  0  0  0  0  0  0  0  0  0  0  0
    9.0591   24.7981   -5.1690 S   0  0  0  0  0  0  0  0  0  0  0  0
  2  3  1  0
  3  4  4  0
  5  6  4  0
  6  7  4  0
  3  7  4  0
  1  8  1  0
  2  8  1  0
  5  9  4  0
  4  9  4  0
  2 10  2  0
M  END
