
     RDKit          3D

 19 21  0  0  0  0  0  0  0  0999 V2000
   55.4874    1.3840   55.5081 C   0  0  0  0  0  0  0  0  0  0  0  0
   55.5681    0.0340   55.1570 C   0  0  0  0  0  0  0  0  0  0  0  0
   55.5689    2.5941   54.6897 C   0  0  0  0  0  0  0  0  0  0  0  0
   55.2785    3.6949   52.5354 C   0  0  0  0  0  0  0  0  0  0  0  0
   55.1973    2.5526   53.3367 C   0  0  0  0  0  0  0  0  0  0  0  0
   55.7352    4.8866   53.0803 C   0  0  0  0  0  0  0  0  0  0  0  0
   56.1135    4.9557   54.4152 C   0  0  0  0  0  0  0  0  0  0  0  0
   56.0308    3.8104   55.2149 C   0  0  0  0  0  0  0  0  0  0  0  0
   55.4271   -0.8118   56.2395 N   0  0  0  0  0  0  0  0  0  0  0  0
   55.2574    0.0214   57.2246 C   0  0  0  0  0  0  0  0  0  0  0  0
   55.2816    1.3301   56.8680 N   0  0  0  0  0  0  0  0  0  0  0  0
   54.9979   -0.1246   58.9081 S   0  0  0  0  0  0  0  0  0  0  0  0
   54.9403    1.6579   58.9424 C   0  0  0  0  0  0  0  0  0  0  0  0
   55.1053    2.2885   57.8161 N   0  0  0  0  0  0  0  0  0  0  0  0
   54.7309    2.2136   60.1673 N   0  0  0  0  0  0  0  0  0  0  0  0
   54.8797    3.6279   60.4367 C   0  0  0  0  0  0  0  0  0  0  0  0
   56.3260    4.0865   60.2560 C   0  0  0  0  0  0  0  0  0  0  0  0
   56.7572    5.1124   61.2947 C   0  0  0  0  0  0  0  0  0  0  0  0
   55.7990    5.9765   52.2647 O   0  0  0  0  0  0  0  0  0  0  0  0
  1  2  4  0
  1  3  1  0
  4  5  4  0
  3  5  4  0
  4  6  4  0
  6  7  4  0
  7  8  4  0
  3  8  4  0
  2  9  4  0
  9 10  4  0
  1 11  4  0
 10 11  4  0
 10 12  4  0
 12 13  4  0
 11 14  4  0
 13 14  4  0
 13 15  1  0
 15 16  1  0
 16 17  1  0
 17 18  1  0
  6 19  1  0
M  END
