7NB4_U6Q_A_401
     RDKit          3D

 53 56  0  0  0  0  0  0  0  0999 V2000
    0.7000    3.6376   -4.0378 C   0  0  0  0  0  0  0  0  0  0  0  0
    0.5927    3.3711   -5.5357 C   0  0  0  0  0  0  0  0  0  0  0  0
   -0.0428    2.0357   -5.7970 C   0  0  0  0  0  0  0  0  0  0  0  0
   -0.6426    1.1980   -4.8424 C   0  0  0  0  0  0  0  0  0  0  0  0
   -1.2586    0.0703   -5.4307 C   0  0  0  0  0  0  0  0  0  0  0  0
   -1.1479    0.0686   -6.8106 C   0  0  0  0  0  0  0  0  0  0  0  0
   -0.2984    1.4055   -7.3454 S   0  0  0  0  0  0  0  0  0  0  0  0
   -1.7310   -0.8719   -7.5886 N   0  0  0  0  0  0  0  0  0  0  0  0
   -2.4445   -1.8642   -6.9940 C   0  0  0  0  0  0  0  0  0  0  0  0
   -2.5599   -1.9110   -5.6358 N   0  0  0  0  0  0  0  0  0  0  0  0
   -1.9803   -0.9759   -4.8267 C   0  0  0  0  0  0  0  0  0  0  0  0
   -2.0966   -1.0970   -3.3992 N   0  0  0  0  0  0  0  0  0  0  0  0
   -2.4952   -0.0008   -2.5100 C   0  0  2  0  0  0  0  0  0  0  0  0
   -1.5043    0.1240   -1.3367 C   0  0  0  0  0  0  0  0  0  0  0  0
   -0.8402    1.4792   -1.2925 C   0  0  0  0  0  0  0  0  0  0  0  0
    0.4701    1.6092   -0.8041 C   0  0  0  0  0  0  0  0  0  0  0  0
    1.0871    2.8628   -0.7697 C   0  0  0  0  0  0  0  0  0  0  0  0
    0.4011    3.9944   -1.2179 C   0  0  0  0  0  0  0  0  0  0  0  0
   -0.9025    3.8752   -1.7024 C   0  0  0  0  0  0  0  0  0  0  0  0
   -1.5220    2.6240   -1.7416 C   0  0  0  0  0  0  0  0  0  0  0  0
   -3.9263   -0.1643   -2.0660 C   0  0  0  0  0  0  0  0  0  0  0  0
   -4.5351    0.8162   -1.5608 O   0  0  0  0  0  0  0  0  0  0  0  0
   -4.6039   -1.3634   -2.2732 O   0  0  0  0  0  0  0  0  0  0  0  0
   -0.7158    1.5468   -3.4094 C   0  0  0  0  0  0  0  0  0  0  0  0
    0.4086    1.4392   -2.5518 C   0  0  0  0  0  0  0  0  0  0  0  0
    1.7297    0.9122   -3.0635 C   0  0  0  0  0  0  0  0  0  0  0  0
    0.2471    1.7252   -1.1759 C   0  0  0  0  0  0  0  0  0  0  0  0
    1.5655    1.5402   -0.0236 Cl  0  0  0  0  0  0  0  0  0  0  0  0
   -0.9931    2.1453   -0.6855 C   0  0  0  0  0  0  0  0  0  0  0  0
   -2.0850    2.2700   -1.5405 C   0  0  0  0  0  0  0  0  0  0  0  0
   -1.9499    1.9679   -2.8933 C   0  0  0  0  0  0  0  0  0  0  0  0
   -0.3084    3.6202   -3.5719 H   0  0  0  0  0  0  0  0  0  0  0  0
    1.1563    4.6388   -3.8682 H   0  0  0  0  0  0  0  0  0  0  0  0
    1.3387    2.8692   -3.5492 H   0  0  0  0  0  0  0  0  0  0  0  0
   -0.0207    4.1694   -6.0055 H   0  0  0  0  0  0  0  0  0  0  0  0
    1.6043    3.4115   -5.9924 H   0  0  0  0  0  0  0  0  0  0  0  0
   -2.9211   -2.6245   -7.6009 H   0  0  0  0  0  0  0  0  0  0  0  0
   -2.0506   -2.0519   -2.9785 H   0  0  0  0  0  0  0  0  0  0  0  0
   -2.4374    0.9420   -3.0985 H   0  0  0  0  0  0  0  0  0  0  0  0
   -0.7148   -0.6514   -1.4505 H   0  0  0  0  0  0  0  0  0  0  0  0
   -2.0152   -0.0870   -0.3747 H   0  0  0  0  0  0  0  0  0  0  0  0
    1.0117    0.7426   -0.4489 H   0  0  0  0  0  0  0  0  0  0  0  0
    2.0970    2.9563   -0.3946 H   0  0  0  0  0  0  0  0  0  0  0  0
    0.8797    4.9622   -1.1908 H   0  0  0  0  0  0  0  0  0  0  0  0
   -1.4330    4.7524   -2.0488 H   0  0  0  0  0  0  0  0  0  0  0  0
   -2.5323    2.5481   -2.1210 H   0  0  0  0  0  0  0  0  0  0  0  0
   -5.5724   -1.4685   -1.9957 H   0  0  0  0  0  0  0  0  0  0  0  0
    1.7854   -0.1822   -2.8839 H   0  0  0  0  0  0  0  0  0  0  0  0
    2.5793    1.4109   -2.5532 H   0  0  0  0  0  0  0  0  0  0  0  0
    1.8672    1.1025   -4.1473 H   0  0  0  0  0  0  0  0  0  0  0  0
   -1.1152    2.3660    0.3669 H   0  0  0  0  0  0  0  0  0  0  0  0
   -3.0423    2.5906   -1.1512 H   0  0  0  0  0  0  0  0  0  0  0  0
   -2.8121    2.0530   -3.5427 H   0  0  0  0  0  0  0  0  0  0  0  0
  1  2  1  0
  2  3  1  0
  3  4  4  0
  4  5  4  0
  5  6  4  0
  6  7  4  0
  3  7  4  0
  6  8  4  0
  8  9  4  0
  9 10  4  0
 10 11  4  0
  5 11  4  0
 11 12  1  0
 12 13  1  0
 13 14  1  0
 14 15  1  0
 15 16  4  0
 16 17  4  0
 17 18  4  0
 18 19  4  0
 15 20  4  0
 19 20  4  0
 13 21  1  0
 21 22  2  0
 21 23  1  0
  4 24  1  0
 24 25  4  0
 25 26  1  0
 25 27  4  0
 27 28  1  0
 27 29  4  0
 29 30  4  0
 24 31  4  0
 30 31  4  0
  1 32  1  0
  1 33  1  0
  1 34  1  0
  2 35  1  0
  2 36  1  0
  9 37  1  0
 12 38  1  0
 13 39  1  6
 14 40  1  0
 14 41  1  0
 16 42  1  0
 17 43  1  0
 18 44  1  0
 19 45  1  0
 20 46  1  0
 23 47  1  0
 26 48  1  0
 26 49  1  0
 26 50  1  0
 29 51  1  0
 30 52  1  0
 31 53  1  0
M  END
