8F4J_PHO_D_402
     RDKit          3D

 64 69  0  0  0  0  0  0  0  0999 V2000
  -61.5265   17.1632  336.7496 C   0  0  0  0  0  0  0  0  0  0  0  0
  -57.8333   19.1581  339.1134 C   0  0  0  0  0  0  0  0  0  0  0  0
  -59.2601   16.7417  343.1672 C   0  0  0  0  0  0  0  0  0  0  0  0
  -62.9120   14.5362  340.7623 C   0  0  0  0  0  0  0  0  0  0  0  0
  -59.7232   17.9519  338.1594 N   0  0  0  0  0  0  0  0  0  0  0  0
  -60.4672   17.9680  336.9472 C   0  0  0  0  0  0  0  0  0  0  0  0
  -59.8398   18.9054  335.9397 C   0  0  2  0  0  0  0  0  0  0  0  0
  -58.4784   19.2507  336.6138 C   0  0  1  0  0  0  0  0  0  0  0  0
  -58.6995   18.7698  338.0475 C   0  0  0  0  0  0  0  0  0  0  0  0
  -57.3672   18.5043  335.9327 C   0  0  0  0  0  0  0  0  0  0  0  0
  -60.6779   20.1300  335.6640 C   0  0  0  0  0  0  0  0  0  0  0  0
  -60.4864   21.1264  336.7921 C   0  0  0  0  0  0  0  0  0  0  0  0
  -61.7999   21.7523  337.1305 C   0  0  0  0  0  0  0  0  0  0  0  0
  -62.2009   22.1220  338.2365 O   0  0  0  0  0  0  0  0  0  0  0  0
  -62.6204   21.8888  336.0499 O   0  0  0  0  0  0  0  0  0  0  0  0
  -58.8937   17.8506  340.9516 N   0  0  0  0  0  0  0  0  0  0  0  0
  -57.9573   18.7318  340.4009 C   0  0  0  0  0  0  0  0  0  0  0  0
  -57.0580   19.1413  341.5081 C   0  0  0  0  0  0  0  0  0  0  0  0
  -57.4455   18.4673  342.6520 C   0  0  0  0  0  0  0  0  0  0  0  0
  -58.6375   17.6184  342.3224 C   0  0  0  0  0  0  0  0  0  0  0  0
  -55.9478   20.0535  341.2393 C   0  0  0  0  0  0  0  0  0  0  0  0
  -56.8736   18.4397  343.9729 C   0  0  0  0  0  0  0  0  0  0  0  0
  -55.7385   19.0292  344.3411 C   0  0  0  0  0  0  0  0  0  0  0  0
  -61.0990   15.9080  341.7507 N   0  0  0  0  0  0  0  0  0  0  0  0
  -60.4257   15.9333  342.8995 C   0  0  0  0  0  0  0  0  0  0  0  0
  -60.9761   14.9032  343.8395 C   0  0  0  0  0  0  0  0  0  0  0  0
  -61.9687   14.2397  343.1379 C   0  0  0  0  0  0  0  0  0  0  0  0
  -62.0803   14.8837  341.7966 C   0  0  0  0  0  0  0  0  0  0  0  0
  -60.4583   14.6239  345.1830 C   0  0  0  0  0  0  0  0  0  0  0  0
  -62.8247   13.1277  343.5913 C   0  0  0  0  0  0  0  0  0  0  0  0
  -63.6025   12.4978  342.4409 C   0  0  0  0  0  0  0  0  0  0  0  0
  -62.0508   16.1826  339.1030 N   0  0  0  0  0  0  0  0  0  0  0  0
  -62.9209   15.1273  339.4640 C   0  0  0  0  0  0  0  0  0  0  0  0
  -63.7148   14.7765  338.3110 C   0  0  0  0  0  0  0  0  0  0  0  0
  -63.2246   15.5589  337.2413 C   0  0  0  0  0  0  0  0  0  0  0  0
  -62.1561   16.3749  337.7699 C   0  0  0  0  0  0  0  0  0  0  0  0
  -64.7960   13.7901  338.2308 C   0  0  0  0  0  0  0  0  0  0  0  0
  -63.3595   15.8134  335.8229 C   0  0  0  0  0  0  0  0  0  0  0  0
  -64.1429   15.3388  335.0164 O   0  0  0  0  0  0  0  0  0  0  0  0
  -62.2322   16.8279  335.4483 C   0  0  2  0  0  0  0  0  0  0  0  0
  -61.3265   16.1953  334.4266 C   0  0  0  0  0  0  0  0  0  0  0  0
  -60.4921   16.7301  333.7054 O   0  0  0  0  0  0  0  0  0  0  0  0
  -61.5087   14.8323  334.3174 O   0  0  0  0  0  0  0  0  0  0  0  0
  -61.4242   14.2893  333.0056 C   0  0  0  0  0  0  0  0  0  0  0  0
  -64.0482   21.8989  336.2946 C   0  0  0  0  0  0  0  0  0  0  0  0
  -64.7495   22.1242  335.0027 C   0  0  0  0  0  0  0  0  0  0  0  0
  -64.6251   23.2958  334.3736 C   0  0  0  0  0  0  0  0  0  0  0  0
  -63.7890   24.3423  334.9873 C   0  0  0  0  0  0  0  0  0  0  0  0
  -65.2913   23.6209  333.0704 C   0  0  0  0  0  0  0  0  0  0  0  0
  -64.5516   24.6305  332.1837 C   0  0  0  0  0  0  0  0  0  0  0  0
  -63.8424   23.9313  331.0291 C   0  0  0  0  0  0  0  0  0  0  0  0
  -64.1826   24.5027  329.6560 C   0  0  2  0  0  0  0  0  0  0  0  0
  -64.0556   26.0010  329.6739 C   0  0  0  0  0  0  0  0  0  0  0  0
  -65.5742   24.0966  329.1671 C   0  0  0  0  0  0  0  0  0  0  0  0
  -65.6193   22.6913  328.5724 C   0  0  0  0  0  0  0  0  0  0  0  0
  -64.9487   22.5734  327.2093 C   0  0  0  0  0  0  0  0  0  0  0  0
  -64.5388   21.1369  326.8918 C   0  0  2  0  0  0  0  0  0  0  0  0
  -63.7380   20.4903  328.0192 C   0  0  0  0  0  0  0  0  0  0  0  0
  -63.7092   21.1018  325.6227 C   0  0  0  0  0  0  0  0  0  0  0  0
  -62.7290   22.2505  325.5007 C   0  0  0  0  0  0  0  0  0  0  0  0
  -61.6537   21.8946  324.4774 C   0  0  0  0  0  0  0  0  0  0  0  0
  -60.2529   22.0623  325.0504 C   0  0  2  0  0  0  0  0  0  0  0  0
  -59.9912   21.0143  326.1057 C   0  0  0  0  0  0  0  0  0  0  0  0
  -60.1413   23.4371  325.6612 C   0  0  0  0  0  0  0  0  0  0  0  0
  1  6  1  0
  5  6  2  0
  6  7  1  0
  7  8  1  0
  2  9  2  0
  5  9  1  0
  8  9  1  0
  8 10  1  6
  7 11  1  1
 11 12  1  0
 12 13  1  0
 13 14  2  0
 13 15  1  0
  2 17  1  0
 16 17  1  0
 17 18  2  0
 18 19  1  0
  3 20  1  0
 16 20  1  0
 19 20  2  0
 18 21  1  0
 19 22  1  0
 22 23  2  0
  3 25  2  0
 24 25  1  0
 25 26  1  0
 26 27  2  0
  4 28  1  0
 24 28  2  0
 27 28  1  0
 26 29  1  0
 27 30  1  0
 30 31  1  0
  4 33  2  0
 32 33  1  0
 33 34  1  0
 34 35  2  0
  1 36  2  0
 32 36  1  0
 35 36  1  0
 34 37  1  0
 35 38  1  0
 38 39  2  0
  1 40  1  0
 38 40  1  0
 40 41  1  6
 41 42  2  0
 41 43  1  0
 43 44  1  0
 15 45  1  0
 45 46  1  0
 46 47  2  0
 47 48  1  0
 47 49  1  0
 49 50  1  0
 50 51  1  0
 51 52  1  0
 52 53  1  1
 52 54  1  0
 54 55  1  0
 55 56  1  0
 56 57  1  0
 57 58  1  1
 57 59  1  0
 59 60  1  0
 60 61  1  0
 61 62  1  0
 62 63  1  1
 62 64  1  0
M  END
