
     RDKit          3D

 45 50  0  0  0  0  0  0  0  0999 V2000
    1.7652   10.4853   44.9712 C   0  0  0  0  0  0  0  0  0  0  0  0
    2.4035    9.2193   45.5364 C   0  0  2  0  0  0  0  0  0  0  0  0
    6.0518    9.8846   45.3398 C   0  0  0  0  0  0  0  0  0  0  0  0
    7.2645   10.5336   45.4536 C   0  0  0  0  0  0  0  0  0  0  0  0
    8.4223    9.8301   45.0940 C   0  0  0  0  0  0  0  0  0  0  0  0
    8.3779    8.4889   44.6274 C   0  0  0  0  0  0  0  0  0  0  0  0
    6.0037    8.5757   44.8683 C   0  0  0  0  0  0  0  0  0  0  0  0
    4.6032    8.1471   44.8551 C   0  0  0  0  0  0  0  0  0  0  0  0
    9.6250    7.7950   44.2614 C   0  0  0  0  0  0  0  0  0  0  0  0
   11.5039    7.8979   42.9146 C   0  0  0  0  0  0  0  0  0  0  0  0
   11.6296   12.2193   41.2893 C   0  0  0  0  0  0  0  0  0  0  0  0
   13.8273   11.6125   40.5975 C   0  0  0  0  0  0  0  0  0  0  0  0
   13.8834   10.3278   41.4119 C   0  0  0  0  0  0  0  0  0  0  0  0
   11.2613    6.1389   44.3612 C   0  0  0  0  0  0  0  0  0  0  0  0
   10.0578    6.6100   44.8315 C   0  0  0  0  0  0  0  0  0  0  0  0
    1.9777    9.0068   47.0031 C   0  0  0  0  0  0  0  0  0  0  0  0
   -0.8446    7.4423   48.5844 C   0  0  0  0  0  0  0  0  0  0  0  0
   -1.4099   11.5221   50.6233 C   0  0  0  0  0  0  0  0  0  0  0  0
   -2.1749   12.1713   49.6573 C   0  0  0  0  0  0  0  0  0  0  0  0
   -2.1991   11.6990   48.3445 C   0  0  0  0  0  0  0  0  0  0  0  0
   -2.6993   12.0926   45.9472 C   0  0  0  0  0  0  0  0  0  0  0  0
   -5.8850   13.6146   44.5143 C   0  0  0  0  0  0  0  0  0  0  0  0
    3.8586    9.1970   45.3586 N   0  0  0  0  0  0  0  0  0  0  0  0
    4.6736   10.3657   45.6485 C   0  0  0  0  0  0  0  0  0  0  0  0
    7.1283    7.8613   44.4996 C   0  0  0  0  0  0  0  0  0  0  0  0
    4.2050    7.0779   44.4359 O   0  0  0  0  0  0  0  0  0  0  0  0
   10.3479    8.4417   43.3125 N   0  0  0  0  0  0  0  0  0  0  0  0
   12.2809    8.5033   41.9505 N   0  0  0  0  0  0  0  0  0  0  0  0
   12.4956    9.9480   41.9415 C   0  0  0  0  0  0  0  0  0  0  0  0
   11.3635   10.7161   41.2585 C   0  0  0  0  0  0  0  0  0  0  0  0
   13.0153   12.5683   41.2722 O   0  0  0  0  0  0  0  0  0  0  0  0
   11.9964    6.7599   43.4155 N   0  0  0  0  0  0  0  0  0  0  0  0
    9.2352    5.7637   46.0780 Cl  0  0  0  0  0  0  0  0  0  0  0  0
    2.8175    8.8565   47.8918 O   0  0  0  0  0  0  0  0  0  0  0  0
    0.6293    8.8758   47.2155 N   0  0  0  0  0  0  0  0  0  0  0  0
    0.0372    8.7108   48.5420 C   0  0  1  0  0  0  0  0  0  0  0  0
   -0.1023    6.2951   48.1510 O   0  0  0  0  0  0  0  0  0  0  0  0
   -0.7470    9.9498   48.9569 C   0  0  0  0  0  0  0  0  0  0  0  0
   -0.6864   10.3938   50.2727 C   0  0  0  0  0  0  0  0  0  0  0  0
   -1.4812   10.6008   48.0095 N   0  0  0  0  0  0  0  0  0  0  0  0
   -2.9908   12.2943   47.3750 N   0  0  0  0  0  0  0  0  0  0  0  0
   -3.9632   12.2402   45.0666 C   0  0  0  0  0  0  0  0  0  0  0  0
   -4.6716   13.5059   45.3123 N   0  0  0  0  0  0  0  0  0  0  0  0
   -4.9365   13.7089   46.7543 C   0  0  0  0  0  0  0  0  0  0  0  0
   -4.3738   12.6310   47.7218 C   0  0  0  0  0  0  0  0  0  0  0  0
  2  1  1  1
  3  4  4  0
  4  5  4  0
  5  6  4  0
  3  7  4  0
  7  8  1  0
  6  9  1  0
 12 13  1  0
  9 15  4  0
 14 15  4  0
  2 16  1  0
 18 19  4  0
 19 20  4  0
  8 23  1  0
  2 23  1  0
 23 24  1  0
  3 24  1  0
  6 25  4  0
  7 25  4  0
  8 26  2  0
 10 27  4  0
  9 27  4  0
 10 28  1  0
 13 29  1  0
 28 29  1  0
 11 30  1  0
 29 30  1  0
 11 31  1  0
 12 31  1  0
 10 32  4  0
 14 32  4  0
 15 33  1  0
 16 34  2  0
 16 35  1  0
 35 36  1  0
 36 17  1  6
 17 37  1  0
 36 38  1  0
 38 39  4  0
 18 39  4  0
 20 40  4  0
 38 40  4  0
 21 41  1  0
 20 41  1  0
 21 42  1  0
 22 43  1  0
 42 43  1  0
 43 44  1  0
 44 45  1  0
 41 45  1  0
M  END
