1R55_097_A_518
     RDKit          3D

 23 22  0  0  0  0  0  0  0  0999 V2000
   21.2113   11.5343   55.0734 N   0  0  0  0  0  0  0  0  0  0  0  0
   22.6337   12.1617   49.5748 C   0  0  0  0  0  0  0  0  0  0  0  0
   23.5767   12.2352   56.1329 O   0  0  0  0  0  0  0  0  0  0  0  0
   20.5150   12.0344   53.9185 C   0  0  0  0  0  0  0  0  0  0  0  0
   18.4253    7.0718   51.9090 O   0  0  0  0  0  0  0  0  0  0  0  0
   21.2474   12.3332   56.3155 C   0  0  1  0  0  0  0  0  0  0  0  0
   20.9157   11.4497   57.4942 C   0  0  1  0  0  0  0  0  0  0  0  0
   21.1124   12.1714   58.8102 C   0  0  0  0  0  0  0  0  0  0  0  0
   19.5838   10.7789   57.4120 C   0  0  0  0  0  0  0  0  0  0  0  0
   22.5596   12.9746   56.3709 C   0  0  0  0  0  0  0  0  0  0  0  0
   24.1785   14.8649   56.6482 C   0  0  0  0  0  0  0  0  0  0  0  0
   18.5664    8.3824   51.5467 N   0  0  0  0  0  0  0  0  0  0  0  0
   19.1001    9.2936   52.5471 C   0  0  0  0  0  0  0  0  0  0  0  0
   19.4720    8.7173   53.6016 O   0  0  0  0  0  0  0  0  0  0  0  0
   19.1618   10.7249   52.2716 C   0  0  1  0  0  0  0  0  0  0  0  0
   18.2351   11.3454   53.1544 O   0  0  0  0  0  0  0  0  0  0  0  0
   20.5058   11.2818   52.6258 C   0  0  1  0  0  0  0  0  0  0  0  0
   21.3194   11.9246   51.5812 C   0  0  0  0  0  0  0  0  0  0  0  0
   21.9243   11.1398   50.5001 C   0  0  2  0  0  0  0  0  0  0  0  0
   22.9572   10.1288   50.8344 C   0  0  0  0  0  0  0  0  0  0  0  0
   19.9264   13.1330   54.0773 O   0  0  0  0  0  0  0  0  0  0  0  0
   21.9599   10.3201   57.5182 C   0  0  0  0  0  0  0  0  0  0  0  0
   22.8241   14.3243   56.6588 N   0  0  0  0  0  0  0  0  0  0  0  0
  1  4  1  0
  6  1  1  6
  6  7  1  0
  7  8  1  1
  7  9  1  0
  3 10  2  0
  6 10  1  0
  5 12  1  0
 12 13  1  0
 13 14  2  0
 13 15  1  0
 15 16  1  1
  4 17  1  0
 15 17  1  0
 17 18  1  6
 19  2  1  6
 18 19  1  0
 19 20  1  0
  4 21  2  0
  7 22  1  0
 10 23  1  0
 11 23  1  0
M  END
$$$$
