1R55_097_A_518
     RDKit          3D

 23 22  0  0  0  0  0  0  0  0999 V2000
   14.8191   18.8845   21.1358 N   0  0  0  0  0  0  0  0  0  0  0  0
   13.0024   20.9576   18.3270 C   0  0  0  0  0  0  0  0  0  0  0  0
   13.1203   20.1875   22.7949 O   0  0  0  0  0  0  0  0  0  0  0  0
   14.5199   18.0386   20.0118 C   0  0  0  0  0  0  0  0  0  0  0  0
   16.7179   18.1877   14.3515 O   0  0  0  0  0  0  0  0  0  0  0  0
   14.5916   18.3922   22.5100 C   0  0  1  0  0  0  0  0  0  0  0  0
   15.7693   18.7610   23.3801 C   0  0  1  0  0  0  0  0  0  0  0  0
   17.0267   18.0280   22.9636 C   0  0  0  0  0  0  0  0  0  0  0  0
   15.9955   20.2297   23.5292 C   0  0  0  0  0  0  0  0  0  0  0  0
   13.3049   18.9302   22.9471 C   0  0  0  0  0  0  0  0  0  0  0  0
   10.9803   18.8467   23.8746 C   0  0  0  0  0  0  0  0  0  0  0  0
   16.2791   17.5885   15.4992 N   0  0  0  0  0  0  0  0  0  0  0  0
   16.3493   18.3699   16.7242 C   0  0  0  0  0  0  0  0  0  0  0  0
   16.7437   19.5506   16.5430 O   0  0  0  0  0  0  0  0  0  0  0  0
   15.9793   17.7637   17.9986 C   0  0  1  0  0  0  0  0  0  0  0  0
   17.0736   17.9807   18.8807 O   0  0  0  0  0  0  0  0  0  0  0  0
   14.8098   18.4715   18.6096 C   0  0  1  0  0  0  0  0  0  0  0  0
   13.5922   18.6788   17.8091 C   0  0  0  0  0  0  0  0  0  0  0  0
   12.4836   19.4966   18.3117 C   0  0  2  0  0  0  0  0  0  0  0  0
   11.2138   19.5382   17.5459 C   0  0  0  0  0  0  0  0  0  0  0  0
   14.0048   16.9280   20.2945 O   0  0  0  0  0  0  0  0  0  0  0  0
   15.4687   18.2314   24.7929 C   0  0  0  0  0  0  0  0  0  0  0  0
   12.2430   18.2094   23.5194 N   0  0  0  0  0  0  0  0  0  0  0  0
  1  4  1  0
  6  1  1  6
  6  7  1  0
  7  8  1  6
  7  9  1  0
  3 10  2  0
  6 10  1  0
  5 12  1  0
 12 13  1  0
 13 14  2  0
 13 15  1  0
 15 16  1  1
  4 17  1  0
 15 17  1  0
 17 18  1  6
 19  2  1  6
 18 19  1  0
 19 20  1  0
  4 21  2  0
  7 22  1  0
 10 23  1  0
 11 23  1  0
M  END
$$$$
