1R55_097_A_518
     RDKit          3D

 23 22  0  0  0  0  0  0  0  0999 V2000
   27.3750   22.5258   48.0258 N   0  0  0  0  0  0  0  0  0  0  0  0
   25.7624   26.2530   51.2450 C   0  0  0  0  0  0  0  0  0  0  0  0
   26.6228   21.1164   50.1998 O   0  0  0  0  0  0  0  0  0  0  0  0
   26.5096   23.6347   47.7259 C   0  0  0  0  0  0  0  0  0  0  0  0
   30.3429   27.1760   45.3155 O   0  0  0  0  0  0  0  0  0  0  0  0
   26.8792   21.1423   47.8756 C   0  0  1  0  0  0  0  0  0  0  0  0
   28.0428   20.2133   47.6244 C   0  0  1  0  0  0  0  0  0  0  0  0
   29.1323   20.3846   48.6612 C   0  0  0  0  0  0  0  0  0  0  0  0
   27.6642   18.7811   47.4349 C   0  0  0  0  0  0  0  0  0  0  0  0
   26.0910   20.8408   49.0689 C   0  0  0  0  0  0  0  0  0  0  0  0
   24.1002   20.0432   50.3618 C   0  0  0  0  0  0  0  0  0  0  0  0
   29.1180   27.1404   45.9214 N   0  0  0  0  0  0  0  0  0  0  0  0
   28.4993   25.8348   46.0909 C   0  0  0  0  0  0  0  0  0  0  0  0
   29.2770   24.8767   45.8467 O   0  0  0  0  0  0  0  0  0  0  0  0
   27.1044   25.7368   46.5069 C   0  0  1  0  0  0  0  0  0  0  0  0
   26.4618   24.8868   45.5648 O   0  0  0  0  0  0  0  0  0  0  0  0
   26.9869   25.0485   47.8315 C   0  0  1  0  0  0  0  0  0  0  0  0
   26.3974   25.7702   48.9707 C   0  0  0  0  0  0  0  0  0  0  0  0
   26.3319   25.1612   50.3031 C   0  0  2  0  0  0  0  0  0  0  0  0
   25.4683   23.9730   50.5108 C   0  0  0  0  0  0  0  0  0  0  0  0
   25.3425   23.3288   47.3752 O   0  0  0  0  0  0  0  0  0  0  0  0
   28.6975   20.6582   46.3052 C   0  0  0  0  0  0  0  0  0  0  0  0
   24.8041   20.2777   49.1063 N   0  0  0  0  0  0  0  0  0  0  0  0
  1  4  1  0
  6  1  1  1
  6  7  1  0
  7  8  1  1
  7  9  1  0
  3 10  2  0
  6 10  1  0
  5 12  1  0
 12 13  1  0
 13 14  2  0
 13 15  1  0
 15 16  1  6
  4 17  1  0
 15 17  1  0
 17 18  1  1
 19  2  1  1
 18 19  1  0
 19 20  1  0
  4 21  2  0
  7 22  1  0
 10 23  1  0
 11 23  1  0
M  END
$$$$
