1R55_097_A_518
     RDKit          3D

 23 22  0  0  0  0  0  0  0  0999 V2000
   25.7025   17.1216   49.3510 N   0  0  0  0  0  0  0  0  0  0  0  0
   28.1692   13.0019   46.5840 C   0  0  0  0  0  0  0  0  0  0  0  0
   23.9967   15.2046   49.8943 O   0  0  0  0  0  0  0  0  0  0  0  0
   27.1103   16.8287   49.3794 C   0  0  0  0  0  0  0  0  0  0  0  0
   29.8231   20.8898   47.8143 O   0  0  0  0  0  0  0  0  0  0  0  0
   24.9440   17.2176   50.6151 C   0  0  1  0  0  0  0  0  0  0  0  0
   23.9070   18.3091   50.5002 C   0  0  1  0  0  0  0  0  0  0  0  0
   23.0282   18.1231   49.2817 C   0  0  0  0  0  0  0  0  0  0  0  0
   23.1092   18.5408   51.7413 C   0  0  0  0  0  0  0  0  0  0  0  0
   24.4134   15.8848   50.8951 C   0  0  0  0  0  0  0  0  0  0  0  0
   23.8279   13.9005   52.3061 C   0  0  0  0  0  0  0  0  0  0  0  0
   30.0438   19.5504   47.6528 N   0  0  0  0  0  0  0  0  0  0  0  0
   28.9380   18.6547   47.9540 C   0  0  0  0  0  0  0  0  0  0  0  0
   27.8509   19.2530   48.1606 O   0  0  0  0  0  0  0  0  0  0  0  0
   29.1567   17.2127   47.9925 C   0  0  1  0  0  0  0  0  0  0  0  0
   29.8892   16.9480   49.1826 O   0  0  0  0  0  0  0  0  0  0  0  0
   27.8601   16.4772   48.1336 C   0  0  1  0  0  0  0  0  0  0  0  0
   27.8062   15.0410   47.8167 C   0  0  0  0  0  0  0  0  0  0  0  0
   28.1259   14.5477   46.4732 C   0  0  2  0  0  0  0  0  0  0  0  0
   27.1910   14.8361   45.3582 C   0  0  0  0  0  0  0  0  0  0  0  0
   27.6513   16.8894   50.5118 O   0  0  0  0  0  0  0  0  0  0  0  0
   24.6628   19.6215   50.2294 C   0  0  0  0  0  0  0  0  0  0  0  0
   24.3122   15.2676   52.1535 N   0  0  0  0  0  0  0  0  0  0  0  0
  1  4  1  0
  6  1  1  6
  6  7  1  0
  7  8  1  6
  7  9  1  0
  3 10  2  0
  6 10  1  0
  5 12  1  0
 12 13  1  0
 13 14  2  0
 13 15  1  0
 15 16  1  1
  4 17  1  0
 15 17  1  0
 17 18  1  1
 19  2  1  1
 18 19  1  0
 19 20  1  0
  4 21  2  0
  7 22  1  0
 10 23  1  0
 11 23  1  0
M  END
$$$$
