1R55_097_A_518
     RDKit          3D

 23 22  0  0  0  0  0  0  0  0999 V2000
   29.0218   29.6313   39.1808 N   0  0  0  0  0  0  0  0  0  0  0  0
   31.4733   30.1446   43.1980 C   0  0  0  0  0  0  0  0  0  0  0  0
   31.2180   30.7954   38.2669 O   0  0  0  0  0  0  0  0  0  0  0  0
   29.0393   28.4772   40.0388 C   0  0  0  0  0  0  0  0  0  0  0  0
   26.9753   27.5032   45.6195 O   0  0  0  0  0  0  0  0  0  0  0  0
   29.3493   29.4891   37.7473 C   0  0  1  0  0  0  0  0  0  0  0  0
   28.4200   30.3531   36.9287 C   0  0  1  0  0  0  0  0  0  0  0  0
   28.3774   31.7762   37.4431 C   0  0  0  0  0  0  0  0  0  0  0  0
   28.6530   30.2925   35.4548 C   0  0  0  0  0  0  0  0  0  0  0  0
   30.7707   29.7969   37.6029 C   0  0  0  0  0  0  0  0  0  0  0  0
   33.1082   29.4970   36.7560 C   0  0  0  0  0  0  0  0  0  0  0  0
   27.3618   27.1778   44.3492 N   0  0  0  0  0  0  0  0  0  0  0  0
   27.1943   28.1955   43.3235 C   0  0  0  0  0  0  0  0  0  0  0  0
   26.7671   29.2911   43.7703 O   0  0  0  0  0  0  0  0  0  0  0  0
   27.5146   27.8901   41.9334 C   0  0  1  0  0  0  0  0  0  0  0  0
   26.4671   28.4448   41.1473 O   0  0  0  0  0  0  0  0  0  0  0  0
   28.7671   28.5903   41.5053 C   0  0  1  0  0  0  0  0  0  0  0  0
   29.9820   28.4637   42.3265 C   0  0  0  0  0  0  0  0  0  0  0  0
   31.2029   29.2051   41.9947 C   0  0  2  0  0  0  0  0  0  0  0  0
   32.4669   28.4566   41.7882 C   0  0  0  0  0  0  0  0  0  0  0  0
   29.2969   27.3865   39.4708 O   0  0  0  0  0  0  0  0  0  0  0  0
   26.9942   29.8219   37.1561 C   0  0  0  0  0  0  0  0  0  0  0  0
   31.7035   29.1088   36.8084 N   0  0  0  0  0  0  0  0  0  0  0  0
  1  4  1  0
  6  1  1  1
  6  7  1  0
  7  8  1  1
  7  9  1  0
  3 10  2  0
  6 10  1  0
  5 12  1  0
 12 13  1  0
 13 14  2  0
 13 15  1  0
 15 16  1  6
  4 17  1  0
 15 17  1  0
 17 18  1  1
 19  2  1  1
 18 19  1  0
 19 20  1  0
  4 21  2  0
  7 22  1  0
 10 23  1  0
 11 23  1  0
M  END
$$$$
