8AIE_M7L_B_301
     RDKit          3D

 23 23  0  0  0  0  0  0  0  0999 V2000
   21.5831   -1.0801   21.8072 C   0  0  0  0  0  0  0  0  0  0  0  0
   22.1844    1.1937   21.7842 C   0  0  0  0  0  0  0  0  0  0  0  0
   20.7194   -0.9189   22.8607 C   0  0  0  0  0  0  0  0  0  0  0  0
   19.6130    0.6796   24.4748 C   0  0  0  0  0  0  0  0  0  0  0  0
   20.5854    0.3418   23.3868 C   0  0  0  0  0  0  0  0  0  0  0  0
   21.3128    1.3669   22.8481 C   0  0  0  0  0  0  0  0  0  0  0  0
   22.9874    2.3204   21.2160 C   0  0  0  0  0  0  0  0  0  0  0  0
   22.2951   -0.0758   21.2755 N   0  0  0  0  0  0  0  0  0  0  0  0
   21.1675    2.6449   23.3892 O   0  0  0  0  0  0  0  0  0  0  0  0
   19.5348    2.0630   24.7267 N   0  0  0  0  0  0  0  0  0  0  0  0
   20.1370   -2.1434   23.4578 C   0  0  0  0  0  0  0  0  0  0  0  0
   20.2678   -3.1737   22.5752 O   0  0  0  0  0  0  0  0  0  0  0  0
   19.5776   -4.6349   22.8435 P   0  0  2  0  0  5  0  0  0  0  0  0
   19.1732   -5.5548   21.5047 O   0  0  0  0  0  0  0  0  0  0  0  0
   18.2575   -4.4748   23.6616 O   0  0  0  0  0  0  0  0  0  0  0  0
   20.5577   -5.6360   23.8465 O   0  0  0  0  0  0  0  0  0  0  0  0
   18.9908    2.8017   25.5743 C   0  0  0  0  0  0  0  0  0  0  0  0
   18.8000    4.2300   25.1830 C   0  0  0  0  0  0  0  0  0  0  0  0
   18.4941    2.4508   26.9216 C   0  0  0  0  0  0  0  0  0  0  0  0
   18.6231    5.1321   26.0298 O   0  0  0  0  0  0  0  0  0  0  0  0
   18.8183    4.5967   23.8325 O   0  0  0  0  0  0  0  0  0  0  0  0
   17.8863    3.4698   27.6027 O   0  0  0  0  0  0  0  0  0  0  0  0
   17.4317    3.0975   28.8189 N   0  0  0  0  0  0  0  0  0  0  0  0
  1  3  2  0
  3  5  1  0
  4  5  1  0
  2  6  1  0
  5  6  2  0
  7  2  1  6
  2  8  2  0
  1  8  1  0
  6  9  1  0
  4 10  1  1
  3 11  1  0
 11 12  1  1
 12 13  1  0
 13 14  1  6
 13 15  2  0
 13 16  1  0
 10 17  2  0
 17 18  1  0
 17 19  1  0
 18 20  2  0
 18 21  1  0
 19 22  1  1
 22 23  1  0
M  END
$$$$
