
     RDKit          3D

 27 30  0  0  0  0  0  0  0  0999 V2000
  -33.1070  -10.0692  -24.3173 C   0  0  0  0  0  0  0  0  0  0  0  0
  -34.4854  -10.0360  -24.5453 C   0  0  0  0  0  0  0  0  0  0  0  0
  -35.2761  -11.1255  -24.1762 C   0  0  0  0  0  0  0  0  0  0  0  0
  -34.6835  -12.2399  -23.5763 C   0  0  0  0  0  0  0  0  0  0  0  0
  -33.2977  -12.2894  -23.3625 C   0  0  0  0  0  0  0  0  0  0  0  0
  -32.5092  -11.2076  -23.7723 C   0  0  0  0  0  0  0  0  0  0  0  0
  -32.2925   -8.8902  -24.6848 C   0  0  0  0  0  0  0  0  0  0  0  0
  -32.4602   -8.3401  -25.9398 N   0  0  0  0  0  0  0  0  0  0  0  0
  -31.4811   -8.4678  -23.8656 O   0  0  0  0  0  0  0  0  0  0  0  0
  -31.7432   -8.7034  -27.1692 C   0  0  0  0  0  0  0  0  0  0  0  0
  -32.1225   -7.6234  -28.1295 C   0  0  0  0  0  0  0  0  0  0  0  0
  -32.9808   -6.7069  -27.5116 C   0  0  0  0  0  0  0  0  0  0  0  0
  -33.2225   -7.1023  -26.0903 C   0  0  0  0  0  0  0  0  0  0  0  0
  -31.7419   -7.4715  -29.4517 C   0  0  0  0  0  0  0  0  0  0  0  0
  -32.2379   -6.3738  -30.1580 C   0  0  0  0  0  0  0  0  0  0  0  0
  -33.0985   -5.4525  -29.5384 C   0  0  0  0  0  0  0  0  0  0  0  0
  -33.4762   -5.6151  -28.2034 C   0  0  0  0  0  0  0  0  0  0  0  0
  -32.5061  -13.6800  -22.5563 S   0  0  0  0  0  0  0  0  0  0  0  0
  -31.0065  -13.7796  -23.5224 C   0  0  0  0  0  0  0  0  0  0  0  0
  -35.4702  -13.2884  -23.1831 O   0  0  0  0  0  0  0  0  0  0  0  0
  -30.7938  -14.8707  -24.3706 C   0  0  0  0  0  0  0  0  0  0  0  0
  -29.6430  -14.9493  -25.1740 C   0  0  0  0  0  0  0  0  0  0  0  0
  -28.6834  -13.9193  -25.1080 C   0  0  0  0  0  0  0  0  0  0  0  0
  -28.8993  -12.8349  -24.2440 C   0  0  0  0  0  0  0  0  0  0  0  0
  -30.0508  -12.7655  -23.4579 C   0  0  0  0  0  0  0  0  0  0  0  0
  -27.4240  -13.9672  -25.9297 C   0  0  0  0  0  0  0  0  0  0  0  0
  -29.4567  -16.1388  -26.0756 C   0  0  0  0  0  0  0  0  0  0  0  0
  1  2  4  0
  2  3  4  0
  3  4  4  0
  4  5  4  0
  1  6  4  0
  5  6  4  0
  1  7  1  0
  7  8  1  0
  7  9  2  0
  8 10  1  0
 10 11  1  0
 11 12  4  0
  8 13  1  0
 12 13  1  0
 11 14  4  0
 14 15  4  0
 15 16  4  0
 16 17  4  0
 12 17  4  0
  5 18  1  0
 18 19  1  0
  4 20  1  0
 19 21  4  0
 21 22  4  0
 22 23  4  0
 23 24  4  0
 24 25  4  0
 19 25  4  0
 23 26  1  0
 22 27  1  0
M  END
