
     RDKit          3D

 30 32  0  0  0  0  0  0  0  0999 V2000
   24.9621   -0.8559   34.9200 N   0  0  0  0  0  0  0  0  0  0  0  0
   22.7429    1.8828   38.6270 C   0  0  0  0  0  0  0  0  0  0  0  0
   23.4438    0.6504   38.2937 N   0  0  0  0  0  0  0  0  0  0  0  0
   23.9022    0.2974   37.0537 C   0  0  0  0  0  0  0  0  0  0  0  0
   23.8033    0.9872   35.9106 N   0  0  0  0  0  0  0  0  0  0  0  0
   24.3574    0.3470   34.8713 C   0  0  0  0  0  0  0  0  0  0  0  0
   25.0581   -1.5376   36.0947 C   0  0  0  0  0  0  0  0  0  0  0  0
   24.4931   -0.9379   37.2308 C   0  0  0  0  0  0  0  0  0  0  0  0
   24.4051   -1.3466   38.5458 N   0  0  0  0  0  0  0  0  0  0  0  0
   23.7746   -0.3651   39.1555 C   0  0  0  0  0  0  0  0  0  0  0  0
   25.6546   -2.8036   36.1967 N   0  0  0  0  0  0  0  0  0  0  0  0
   26.6177   -3.4606   35.4188 C   0  0  0  0  0  0  0  0  0  0  0  0
   27.8641   -3.8638   35.9082 C   0  0  0  0  0  0  0  0  0  0  0  0
   28.7994   -4.4914   35.0786 C   0  0  0  0  0  0  0  0  0  0  0  0
   28.5080   -4.6917   33.7276 C   0  0  0  0  0  0  0  0  0  0  0  0
   27.2778   -4.2881   33.2114 C   0  0  0  0  0  0  0  0  0  0  0  0
   26.8280   -4.5524   31.5662 Cl  0  0  0  0  0  0  0  0  0  0  0  0
   26.3460   -3.6704   34.0548 C   0  0  0  0  0  0  0  0  0  0  0  0
   29.5133   -5.3696   32.9029 C   0  0  0  0  0  0  0  0  0  0  0  0
   30.1281   -4.4980   32.0836 O   0  0  0  0  0  0  0  0  0  0  0  0
   29.8208   -6.5432   32.9737 O   0  0  0  0  0  0  0  0  0  0  0  0
   24.3331    0.9067   33.6119 N   0  0  0  0  0  0  0  0  0  0  0  0
   24.9490    0.2685   32.4454 C   0  0  0  0  0  0  0  0  0  0  0  0
   25.7482    1.2792   31.5766 C   0  0  0  0  0  0  0  0  0  0  0  0
   26.6544    0.5558   30.5703 C   0  0  0  0  0  0  0  0  0  0  0  0
   26.5703    2.2990   32.3641 C   0  0  0  0  0  0  0  0  0  0  0  0
   24.0176   -0.6662   31.6412 C   0  0  0  0  0  0  0  0  0  0  0  0
   23.7285   -1.8619   32.3696 O   0  0  0  0  0  0  0  0  0  0  0  0
   21.4328    2.0049   37.8496 C   0  0  0  0  0  0  0  0  0  0  0  0
   23.6293    3.1146   38.4352 C   0  0  0  0  0  0  0  0  0  0  0  0
  2  3  1  0
  3  4  4  0
  4  5  4  0
  1  6  4  0
  5  6  4  0
  1  7  4  0
  4  8  4  0
  7  8  4  0
  8  9  4  0
  3 10  4  0
  9 10  4  0
  7 11  1  0
 11 12  1  0
 12 13  4  0
 13 14  4  0
 14 15  4  0
 15 16  4  0
 16 17  1  0
 12 18  4  0
 16 18  4  0
 15 19  1  0
 19 20  1  0
 19 21  2  0
  6 22  1  0
 22 23  1  0
 23 24  1  0
 24 25  1  0
 24 26  1  0
 23 27  1  0
 27 28  1  0
  2 29  1  0
  2 30  1  0
M  END
