7PT3_3KK_A_702
     RDKit          3D

 96 98  0  0  0  0  0  0  0  0999 V2000
   -3.5970    0.4459   10.8967 C   0  0  0  0  0  0  0  0  0  0  0  0
   -3.8610   -0.7973   11.7707 C   0  0  2  0  0  0  0  0  0  0  0  0
   -2.9696   -0.7472   13.0338 C   0  0  0  0  0  0  0  0  0  0  0  0
   -3.5530   -1.9651   11.0413 O   0  0  0  0  0  0  0  0  0  0  0  0
   -5.3403   -0.8500   12.1154 C   0  0  0  0  0  0  0  0  0  0  0  0
   -6.0520    0.1003   11.8216 O   0  0  0  0  0  0  0  0  0  0  0  0
   -6.1188   -2.2831   12.8829 S   0  0  0  0  0  0  0  0  0  0  0  0
   -6.7990   -1.3290   14.2790 C   0  0  0  0  0  0  0  0  0  0  0  0
   -6.8348   -2.2064   15.5298 C   0  0  0  0  0  0  0  0  0  0  0  0
   -5.6212   -3.0139   15.6156 N   0  0  0  0  0  0  0  0  0  0  0  0
   -4.9683   -3.5369   14.4500 C   0  0  0  0  0  0  0  0  0  0  0  0
   -5.6119   -4.2353   13.6208 O   0  0  0  0  0  0  0  0  0  0  0  0
   -3.5212   -3.2222   14.1943 C   0  0  0  0  0  0  0  0  0  0  0  0
   -3.1900   -3.2424   12.6968 C   0  0  0  0  0  0  0  0  0  0  0  0
   -2.9916   -4.6104   12.2083 N   0  0  0  0  0  0  0  0  0  0  0  0
   -3.8809   -5.2021   11.2477 C   0  0  0  0  0  0  0  0  0  0  0  0
   -3.4435   -5.5472   10.1154 O   0  0  0  0  0  0  0  0  0  0  0  0
   -5.3310   -5.4595   11.5954 C   0  0  2  0  0  0  0  0  0  0  0  0
   -5.4409   -6.7336   12.1830 O   0  0  0  0  0  0  0  0  0  0  0  0
   -6.2864   -5.3190   10.3533 C   0  0  1  0  0  0  0  0  0  0  0  0
   -7.4546   -6.3222   10.4737 C   0  0  0  0  0  0  0  0  0  0  0  0
   -6.8927   -3.8958   10.3313 C   0  0  0  0  0  0  0  0  0  0  0  0
   -5.5519   -5.5602    9.0075 C   0  0  0  0  0  0  0  0  0  0  0  0
   -5.7256   -4.4641    8.1401 O   0  0  0  0  0  0  0  0  0  0  0  0
   -7.2979   -3.8352    8.3495 P   0  0  2  0  0  5  0  0  0  0  0  0
   -8.2834   -4.4801    7.1319 O   0  0  0  0  0  0  0  0  0  0  0  0
   -7.2344   -2.3373    8.1763 O   0  0  0  0  0  0  0  0  0  0  0  0
   -7.8757   -4.1801    9.9210 O   0  0  0  0  0  0  0  0  0  0  0  0
   -9.2256   -5.1982    9.7783 P   0  0  2  0  0  5  0  0  0  0  0  0
   -9.5736   -5.3175    8.3102 O   0  0  0  0  0  0  0  0  0  0  0  0
  -10.5486   -4.4984   10.5625 O   0  0  0  0  0  0  0  0  0  0  0  0
   -8.9068   -6.7292   10.4711 O   0  0  0  0  0  0  0  0  0  0  0  0
   -7.7536   -6.6388   11.2735 C   0  0  0  0  0  0  0  0  0  0  0  0
   -8.1543   -6.3187   12.7183 C   0  0  1  0  0  0  0  0  0  0  0  0
   -7.1073   -5.5958   13.3365 O   0  0  0  0  0  0  0  0  0  0  0  0
   -9.4582   -5.5102   12.8014 C   0  0  1  0  0  0  0  0  0  0  0  0
  -10.2294   -6.0019   13.8870 O   0  0  0  0  0  0  0  0  0  0  0  0
   -9.6916   -7.5561   14.3312 P   0  0  1  0  0  5  0  0  0  0  0  0
  -10.4757   -8.0659   15.5255 O   0  0  0  0  0  0  0  0  0  0  0  0
   -9.8896   -8.6178   13.0279 O   0  0  0  0  0  0  0  0  0  0  0  0
   -8.0508   -7.4702   14.7369 O   0  0  0  0  0  0  0  0  0  0  0  0
   -8.9503   -4.1174   13.1037 C   0  0  1  0  0  0  0  0  0  0  0  0
   -9.8542   -3.3456   13.8650 O   0  0  0  0  0  0  0  0  0  0  0  0
   -7.6331   -4.3857   13.8235 C   0  0  2  0  0  0  0  0  0  0  0  0
   -6.6707   -3.3014   13.6081 N   0  0  0  0  0  4  0  0  0  0  0  0
   -6.0323   -2.5659   14.5603 C   0  0  0  0  0  0  0  0  0  0  0  0
   -5.1420   -1.6711   14.0481 N   0  0  0  0  0  0  0  0  0  0  0  0
   -5.2565   -1.8696   12.7196 C   0  0  0  0  0  0  0  0  0  0  0  0
   -6.1650   -2.8364   12.4589 C   0  0  0  0  0  0  0  0  0  0  0  0
   -6.4481   -3.2534   11.1993 N   0  0  0  0  0  0  0  0  0  0  0  0
   -5.7859   -2.6581   10.1600 C   0  0  0  0  0  0  0  0  0  0  0  0
   -4.8575   -1.6778   10.4005 N   0  0  0  0  0  0  0  0  0  0  0  0
   -4.5718   -1.2623   11.6736 C   0  0  0  0  0  0  0  0  0  0  0  0
   -3.5783   -0.2648   11.8998 N   0  0  0  0  0  0  0  0  0  0  0  0
   -3.8963    1.3801   11.4249 H   0  0  0  0  0  0  0  0  0  0  0  0
   -4.1688    0.3792    9.9455 H   0  0  0  0  0  0  0  0  0  0  0  0
   -2.5162    0.5203   10.6401 H   0  0  0  0  0  0  0  0  0  0  0  0
   -3.1275   -1.6599   13.6535 H   0  0  0  0  0  0  0  0  0  0  0  0
   -1.8969   -0.7098   12.7508 H   0  0  0  0  0  0  0  0  0  0  0  0
   -3.1958    0.1519   13.6488 H   0  0  0  0  0  0  0  0  0  0  0  0
   -2.6022   -1.9113   10.7604 H   0  0  0  0  0  0  0  0  0  0  0  0
   -6.1642   -0.4362   14.4658 H   0  0  0  0  0  0  0  0  0  0  0  0
   -7.8286   -0.9957   14.0256 H   0  0  0  0  0  0  0  0  0  0  0  0
   -7.7295   -2.8702   15.5120 H   0  0  0  0  0  0  0  0  0  0  0  0
   -6.9046   -1.5537   16.4300 H   0  0  0  0  0  0  0  0  0  0  0  0
   -5.2472   -3.2546   16.5633 H   0  0  0  0  0  0  0  0  0  0  0  0
   -2.8765   -3.9466   14.7331 H   0  0  0  0  0  0  0  0  0  0  0  0
   -3.2918   -2.2157   14.5996 H   0  0  0  0  0  0  0  0  0  0  0  0
   -2.2520   -2.6616   12.5457 H   0  0  0  0  0  0  0  0  0  0  0  0
   -3.9999   -2.7546   12.1121 H   0  0  0  0  0  0  0  0  0  0  0  0
   -2.1378   -5.1420   12.4934 H   0  0  0  0  0  0  0  0  0  0  0  0
   -5.6216   -4.6855   12.3511 H   0  0  0  0  0  0  0  0  0  0  0  0
   -6.1345   -6.6752   12.8934 H   0  0  0  0  0  0  0  0  0  0  0  0
   -7.9979   -6.1780   11.4301 H   0  0  0  0  0  0  0  0  0  0  0  0
   -7.0918   -7.3717   10.4370 H   0  0  0  0  0  0  0  0  0  0  0  0
   -8.1811   -6.1878    9.6424 H   0  0  0  0  0  0  0  0  0  0  0  0
   -7.6186   -3.7885    9.4984 H   0  0  0  0  0  0  0  0  0  0  0  0
   -7.4253   -3.6771   11.2824 H   0  0  0  0  0  0  0  0  0  0  0  0
   -6.1045   -3.1263   10.1874 H   0  0  0  0  0  0  0  0  0  0  0  0
   -4.4656   -5.7218    9.2074 H   0  0  0  0  0  0  0  0  0  0  0  0
   -5.9622   -6.4881    8.5495 H   0  0  0  0  0  0  0  0  0  0  0  0
   -8.0716   -5.4445    7.1207 H   0  0  0  0  0  0  0  0  0  0  0  0
  -11.1784   -5.2483   10.7221 H   0  0  0  0  0  0  0  0  0  0  0  0
   -7.2304   -7.6239   11.2787 H   0  0  0  0  0  0  0  0  0  0  0  0
   -7.0612   -5.8465   10.8974 H   0  0  0  0  0  0  0  0  0  0  0  0
   -8.2706   -7.2879   13.2548 H   0  0  0  0  0  0  0  0  0  0  0  0
   -9.9807   -5.5084   11.8119 H   0  0  0  0  0  0  0  0  0  0  0  0
   -9.4092   -8.1842   12.2788 H   0  0  0  0  0  0  0  0  0  0  0  0
   -7.7726   -8.4126   14.8506 H   0  0  0  0  0  0  0  0  0  0  0  0
   -8.7556   -3.5927   12.1414 H   0  0  0  0  0  0  0  0  0  0  0  0
   -9.9187   -3.7351   14.7767 H   0  0  0  0  0  0  0  0  0  0  0  0
   -7.8035   -4.5097   14.9157 H   0  0  0  0  0  0  0  0  0  0  0  0
   -6.2069   -2.6818   15.6268 H   0  0  0  0  0  0  0  0  0  0  0  0
   -5.9948   -2.9644    9.1424 H   0  0  0  0  0  0  0  0  0  0  0  0
   -3.0534    0.1410   11.0953 H   0  0  0  0  0  0  0  0  0  0  0  0
   -3.3424    0.0468   12.8671 H   0  0  0  0  0  0  0  0  0  0  0  0
  1  2  1  0
  2  3  1  0
  2  4  1  6
  2  5  1  0
  5  6  2  0
  5  7  1  0
  7  8  1  0
  8  9  1  0
  9 10  1  0
 10 11  1  0
 11 12  2  0
 11 13  1  0
 13 14  1  0
 14 15  1  0
 15 16  1  0
 16 17  2  0
 16 18  1  0
 18 19  1  0
 18 20  1  0
 20 21  1  1
 20 22  1  0
 20 23  1  0
 23 24  1  0
 25 24  1  1
 25 26  1  0
 25 27  2  0
 25 28  1  0
 29 28  1  6
 29 30  2  0
 29 31  1  0
 29 32  1  0
 32 33  1  0
 34 33  1  0
 34 35  1  0
 34 36  1  0
 36 37  1  0
 38 37  1  6
 38 39  2  0
 38 40  1  0
 38 41  1  0
 36 42  1  0
 42 43  1  0
 42 44  1  0
 35 44  1  0
 44 45  1  0
 45 46  4  0
 46 47  4  0
 47 48  4  0
 45 49  4  0
 48 49  4  0
 49 50  4  0
 50 51  4  0
 51 52  4  0
 48 53  4  0
 52 53  4  0
 53 54  1  0
  1 55  1  0
  1 56  1  0
  1 57  1  0
  3 58  1  0
  3 59  1  0
  3 60  1  0
  4 61  1  0
  8 62  1  0
  8 63  1  0
  9 64  1  0
  9 65  1  0
 10 66  1  0
 13 67  1  0
 13 68  1  0
 14 69  1  0
 14 70  1  0
 15 71  1  0
 18 72  1  1
 19 73  1  0
 21 74  1  0
 21 75  1  0
 21 76  1  0
 22 77  1  0
 22 78  1  0
 22 79  1  0
 23 80  1  0
 23 81  1  0
 26 82  1  0
 31 83  1  0
 33 84  1  0
 33 85  1  0
 34 86  1  1
 36 87  1  6
 40 88  1  0
 41 89  1  0
 42 90  1  6
 43 91  1  0
 44 92  1  1
 46 93  1  0
 51 94  1  0
 54 95  1  0
 54 96  1  0
M  CHG  1  45   1
M  END
