1HVY_D16_D_417
     RDKit          3D

 54 56  0  0  0  0  0  0  0  0999 V2000
   -0.8299   -0.5507    4.9368 N   0  0  0  0  0  0  0  0  0  0  0  0
   -2.1309   -0.9212    4.7674 C   0  0  0  0  0  0  0  0  0  0  0  0
   -2.7430   -1.9618    5.6542 C   0  0  0  0  0  0  0  0  0  0  0  0
   -2.8743   -0.3572    3.7791 N   0  0  0  0  0  0  0  0  0  0  0  0
   -2.3549    0.5831    2.9485 C   0  0  0  0  0  0  0  0  0  0  0  0
   -3.0827    1.0782    2.0466 O   0  0  0  0  0  0  0  0  0  0  0  0
   -1.0183    0.9885    3.1024 C   0  0  0  0  0  0  0  0  0  0  0  0
   -0.4235    1.9497    2.2646 C   0  0  0  0  0  0  0  0  0  0  0  0
    0.9230    2.3094    2.4398 C   0  0  0  0  0  0  0  0  0  0  0  0
    1.6720    1.7040    3.4601 C   0  0  0  0  0  0  0  0  0  0  0  0
    1.0849    0.7575    4.3038 C   0  0  0  0  0  0  0  0  0  0  0  0
   -0.2580    0.3887    4.1296 C   0  0  0  0  0  0  0  0  0  0  0  0
    1.5869    3.2568    1.4738 C   0  0  0  0  0  0  0  0  0  0  0  0
    2.1354    2.5065    0.3361 N   0  0  0  0  0  0  0  0  0  0  0  0
   -0.0862    0.3926   -2.0924 C   0  0  0  0  0  0  0  0  0  0  0  0
    1.3052    0.3137   -1.1421 S   0  0  0  0  0  0  0  0  0  0  0  0
    1.2423    1.9135   -0.6226 C   0  0  0  0  0  0  0  0  0  0  0  0
    0.1299    2.5329   -1.1826 C   0  0  0  0  0  0  0  0  0  0  0  0
   -0.6095    1.6812   -2.0102 C   0  0  0  0  0  0  0  0  0  0  0  0
   -0.6947   -0.7288   -2.8306 C   0  0  0  0  0  0  0  0  0  0  0  0
   -1.7244   -0.5198   -3.5286 O   0  0  0  0  0  0  0  0  0  0  0  0
   -0.1435   -2.0537   -2.7444 N   0  0  0  0  0  0  0  0  0  0  0  0
   -0.8495   -3.2217   -3.2842 C   0  0  1  0  0  0  0  0  0  0  0  0
    0.0946   -4.4364   -3.4037 C   0  0  0  0  0  0  0  0  0  0  0  0
    1.2407   -4.2122   -4.4049 C   0  0  0  0  0  0  0  0  0  0  0  0
    0.7385   -4.1300   -5.8154 C   0  0  0  0  0  0  0  0  0  0  0  0
    0.5986   -3.0076   -6.3729 O   0  0  0  0  0  0  0  0  0  0  0  0
    0.3925   -5.2955   -6.4981 O   0  0  0  0  0  0  0  0  0  0  0  0
   -2.0035   -3.5647   -2.3850 C   0  0  0  0  0  0  0  0  0  0  0  0
   -3.1395   -3.7954   -2.8776 O   0  0  0  0  0  0  0  0  0  0  0  0
   -1.8166   -3.6404   -1.0058 O   0  0  0  0  0  0  0  0  0  0  0  0
    3.5412    2.0968    0.3627 C   0  0  0  0  0  0  0  0  0  0  0  0
   -0.2670   -0.9986    5.6963 H   0  0  0  0  0  0  0  0  0  0  0  0
   -2.2354   -2.9365    5.4873 H   0  0  0  0  0  0  0  0  0  0  0  0
   -2.6249   -1.6642    6.7178 H   0  0  0  0  0  0  0  0  0  0  0  0
   -3.8268   -2.0773    5.4353 H   0  0  0  0  0  0  0  0  0  0  0  0
   -0.9965    2.4073    1.4666 H   0  0  0  0  0  0  0  0  0  0  0  0
    2.7168    1.9580    3.5947 H   0  0  0  0  0  0  0  0  0  0  0  0
    1.6815    0.3016    5.0842 H   0  0  0  0  0  0  0  0  0  0  0  0
    2.3954    3.8188    1.9930 H   0  0  0  0  0  0  0  0  0  0  0  0
    0.8634    4.0222    1.1190 H   0  0  0  0  0  0  0  0  0  0  0  0
   -0.1482    3.5600   -0.9934 H   0  0  0  0  0  0  0  0  0  0  0  0
   -1.5135    1.9951   -2.5171 H   0  0  0  0  0  0  0  0  0  0  0  0
    0.7319   -2.2039   -2.1928 H   0  0  0  0  0  0  0  0  0  0  0  0
   -1.2423   -2.9779   -4.2966 H   0  0  0  0  0  0  0  0  0  0  0  0
    0.5334   -4.6609   -2.4056 H   0  0  0  0  0  0  0  0  0  0  0  0
   -0.4877   -5.3337   -3.7155 H   0  0  0  0  0  0  0  0  0  0  0  0
    1.9479   -5.0677   -4.3333 H   0  0  0  0  0  0  0  0  0  0  0  0
    1.8101   -3.2908   -4.1485 H   0  0  0  0  0  0  0  0  0  0  0  0
    0.0337   -5.2586   -7.4455 H   0  0  0  0  0  0  0  0  0  0  0  0
   -2.5860   -3.8708   -0.3878 H   0  0  0  0  0  0  0  0  0  0  0  0
    4.1827    2.9437    0.6881 H   0  0  0  0  0  0  0  0  0  0  0  0
    3.8782    1.7876   -0.6509 H   0  0  0  0  0  0  0  0  0  0  0  0
    3.6688    1.2437    1.0619 H   0  0  0  0  0  0  0  0  0  0  0  0
  1  2  1  0
  2  3  1  0
  2  4  2  0
  4  5  1  0
  5  6  2  0
  5  7  1  0
  7  8  1  0
  8  9  2  0
  9 10  1  0
 10 11  2  0
  1 12  1  0
  7 12  2  0
 11 12  1  0
  9 13  1  0
 13 14  1  0
 15 16  1  0
 14 17  1  0
 16 17  1  0
 17 18  2  0
 15 19  2  0
 18 19  1  0
 15 20  1  0
 20 21  2  0
 20 22  1  0
 22 23  1  0
 23 24  1  0
 24 25  1  0
 25 26  1  0
 26 27  2  0
 26 28  1  0
 23 29  1  0
 29 30  2  0
 29 31  1  0
 14 32  1  0
  1 33  1  0
  3 34  1  0
  3 35  1  0
  3 36  1  0
  8 37  1  0
 10 38  1  0
 11 39  1  0
 13 40  1  0
 13 41  1  0
 18 42  1  0
 19 43  1  0
 22 44  1  0
 23 45  1  6
 24 46  1  0
 24 47  1  0
 25 48  1  0
 25 49  1  0
 28 50  1  0
 31 51  1  0
 32 52  1  0
 32 53  1  0
 32 54  1  0
M  END
