@<TRIPOS>MOLECULE
1HVY_D16_D_417
 54 56 0 0 0
SMALL
GASTEIGER

@<TRIPOS>ATOM
      1 N          -0.8299   -0.5507    4.9368 N.ar    0  UNK0       -0.3430
      2 C          -2.1309   -0.9212    4.7674 C.ar    0  UNK0        0.1083
      3 C          -2.7430   -1.9618    5.6542 C.3     0  UNK0       -0.0063
      4 N          -2.8743   -0.3572    3.7791 N.ar    0  UNK0       -0.1958
      5 C          -2.3549    0.5831    2.9485 C.ar    0  UNK0        0.2809
      6 O          -3.0827    1.0782    2.0466 O.2     0  UNK0       -0.2651
      7 C          -1.0183    0.9885    3.1024 C.ar    0  UNK0        0.0648
      8 C          -0.4235    1.9497    2.2646 C.ar    0  UNK0       -0.0427
      9 C           0.9230    2.3094    2.4398 C.ar    0  UNK0       -0.0293
     10 C           1.6720    1.7040    3.4601 C.ar    0  UNK0       -0.0551
     11 C           1.0849    0.7575    4.3038 C.ar    0  UNK0       -0.0373
     12 C          -0.2580    0.3887    4.1296 C.ar    0  UNK0        0.0530
     13 C           1.5869    3.2568    1.4738 C.3     0  UNK0        0.0374
     14 N           2.1354    2.5065    0.3361 N.pl3   0  UNK0       -0.3233
     15 C          -0.0862    0.3926   -2.0924 C.ar    0  UNK0        0.0756
     16 S           1.3052    0.3137   -1.1421 S.2     0  UNK0       -0.0691
     17 C           1.2423    1.9135   -0.6226 C.ar    0  UNK0        0.0687
     18 C           0.1299    2.5329   -1.1826 C.ar    0  UNK0       -0.0326
     19 C          -0.6095    1.6812   -2.0102 C.ar    0  UNK0       -0.0407
     20 C          -0.6947   -0.7288   -2.8306 C.2     0  UNK0        0.2514
     21 O          -1.7244   -0.5198   -3.5286 O.2     0  UNK0       -0.2696
     22 N          -0.1435   -2.0537   -2.7444 N.am    1  GLU1       -0.2979
     23 CA         -0.8495   -3.2217   -3.2842 C.3     1  GLU1        0.1210
     24 CB          0.0946   -4.4364   -3.4037 C.3     1  GLU1       -0.0140
     25 CG          1.2407   -4.2122   -4.4049 C.3     1  GLU1        0.0470
     26 CD          0.7385   -4.1300   -5.8154 C.2     1  GLU1        0.3048
     27 OE1         0.5986   -3.0076   -6.3729 O.2     1  GLU1       -0.2510
     28 OE2         0.3925   -5.2955   -6.4981 O.3     1  GLU1       -0.4806
     29 C          -2.0035   -3.5647   -2.3850 C.2     1  GLU1        0.3253
     30 O          -3.1395   -3.7954   -2.8776 O.2     1  GLU1       -0.2489
     31 OXT        -1.8166   -3.6404   -1.0058 O.3     1  GLU1       -0.4793
     32 C           3.5412    2.0968    0.3627 C.3     0  UNK0        0.0015
     33 H          -0.2670   -0.9986    5.6963 H       0  UNK0        0.1670
     34 H          -2.2354   -2.9365    5.4873 H       0  UNK0        0.0307
     35 H          -2.6249   -1.6642    6.7178 H       0  UNK0        0.0307
     36 H          -3.8268   -2.0773    5.4353 H       0  UNK0        0.0307
     37 H          -0.9965    2.4073    1.4666 H       0  UNK0        0.0629
     38 H           2.7168    1.9580    3.5947 H       0  UNK0        0.0621
     39 H           1.6815    0.3016    5.0842 H       0  UNK0        0.0638
     40 H           2.3954    3.8188    1.9930 H       0  UNK0        0.0513
     41 H           0.8634    4.0222    1.1190 H       0  UNK0        0.0513
     42 H          -0.1482    3.5600   -0.9934 H       0  UNK0        0.0642
     43 H          -1.5135    1.9951   -2.5171 H       0  UNK0        0.0631
     44 H           0.7319   -2.2039   -2.1928 H       1  GLU1        0.1499
     45 HA         -1.2423   -2.9779   -4.2966 H       1  GLU1        0.0614
     46 HB1         0.5334   -4.6609   -2.4056 H       1  GLU1        0.0294
     47 HB2        -0.4877   -5.3337   -3.7155 H       1  GLU1        0.0294
     48 HG1         1.9479   -5.0677   -4.3333 H       1  GLU1        0.0378
     49 HG2         1.8101   -3.2908   -4.1485 H       1  GLU1        0.0378
     50 HE2         0.0337   -5.2586   -7.4455 H       1  GLU1        0.2951
     51 HXT        -2.5860   -3.8708   -0.3878 H       1  GLU1        0.2951
     52 H           4.1827    2.9437    0.6881 H       0  UNK0        0.0428
     53 H           3.8782    1.7876   -0.6509 H       0  UNK0        0.0428
     54 H           3.6688    1.2437    1.0619 H       0  UNK0        0.0428
@<TRIPOS>BOND
     1     1     2   ar
     2     2     3    1
     3     2     4   ar
     4     4     5   ar
     5     5     6    2
     6     5     7   ar
     7     7     8   ar
     8     8     9   ar
     9     9    10   ar
    10    10    11   ar
    11     1    12   ar
    12     7    12   ar
    13    11    12   ar
    14     9    13    1
    15    13    14    1
    16    15    16   ar
    17    14    17    1
    18    16    17   ar
    19    17    18   ar
    20    15    19   ar
    21    18    19   ar
    22    15    20    1
    23    20    21    2
    24    20    22   am
    25    22    23    1
    26    23    24    1
    27    24    25    1
    28    25    26    1
    29    26    27    2
    30    26    28    1
    31    23    29    1
    32    29    30    2
    33    29    31    1
    34    14    32    1
    35     1    33    1
    36     3    34    1
    37     3    35    1
    38     3    36    1
    39     8    37    1
    40    10    38    1
    41    11    39    1
    42    13    40    1
    43    13    41    1
    44    18    42    1
    45    19    43    1
    46    22    44    1
    47    23    45    1
    48    24    46    1
    49    24    47    1
    50    25    48    1
    51    25    49    1
    52    28    50    1
    53    31    51    1
    54    32    52    1
    55    32    53    1
    56    32    54    1
