1HWW_SWA_A_1103
     RDKit          3D

 12 13  0  0  0  0  0  0  0  0999 V2000
   29.6035   66.8352    7.9541 C   0  0  1  0  0  0  0  0  0  0  0  0
   28.8418   67.9664    7.5953 O   0  0  0  0  0  0  0  0  0  0  0  0
   30.5671   67.1790    9.0127 C   0  0  1  0  0  0  0  0  0  0  0  0
   30.5763   66.3978   10.1866 N   0  0  0  0  0  0  0  0  0  0  0  0
   30.0145   65.0837   10.0629 C   0  0  0  0  0  0  0  0  0  0  0  0
   28.5607   65.3440    9.6780 C   0  0  0  0  0  0  0  0  0  0  0  0
   28.6531   65.7284    8.2088 C   0  0  0  0  0  0  0  0  0  0  0  0
   31.8735   66.4350   10.7854 C   0  0  0  0  0  0  0  0  0  0  0  0
   32.8601   66.7846    9.7081 C   0  0  1  0  0  0  0  0  0  0  0  0
   33.7065   65.7157    9.3998 O   0  0  0  0  0  0  0  0  0  0  0  0
   32.0071   67.0732    8.5175 C   0  0  1  0  0  0  0  0  0  0  0  0
   32.0359   66.0102    7.5956 O   0  0  0  0  0  0  0  0  0  0  0  0
  1  2  1  1
  1  3  1  0
  3  4  1  1
  4  5  1  0
  5  6  1  0
  1  7  1  0
  6  7  1  0
  4  8  1  0
  8  9  1  0
  9 10  1  6
  3 11  1  0
  9 11  1  0
 11 12  1  6
M  END
$$$$
