1HWW_SWA_A_1103
     RDKit          3D

 12 13  0  0  0  0  0  0  0  0999 V2000
   25.7237   65.1807   10.9025 C   0  0  1  0  0  0  0  0  0  0  0  0
   24.8059   66.2316   10.6983 O   0  0  0  0  0  0  0  0  0  0  0  0
   26.5387   65.4358   12.1018 C   0  0  1  0  0  0  0  0  0  0  0  0
   26.6008   64.4341   13.0923 N   0  0  0  0  0  0  0  0  0  0  0  0
   26.2825   63.1058   12.6537 C   0  0  0  0  0  0  0  0  0  0  0  0
   24.8357   63.2156   12.1804 C   0  0  0  0  0  0  0  0  0  0  0  0
   24.9618   63.9125   10.8338 C   0  0  0  0  0  0  0  0  0  0  0  0
   27.8280   64.5420   13.8169 C   0  0  0  0  0  0  0  0  0  0  0  0
   28.8120   65.2595   12.9375 C   0  0  1  0  0  0  0  0  0  0  0  0
   29.8482   64.4233   12.5125 O   0  0  0  0  0  0  0  0  0  0  0  0
   28.0062   65.6598   11.7462 C   0  0  1  0  0  0  0  0  0  0  0  0
   28.2804   64.8339   10.6402 O   0  0  0  0  0  0  0  0  0  0  0  0
  1  2  1  1
  1  3  1  0
  3  4  1  1
  4  5  1  0
  5  6  1  0
  1  7  1  0
  6  7  1  0
  4  8  1  0
  8  9  1  0
  9 10  1  6
  3 11  1  0
  9 11  1  0
 11 12  1  6
M  END
$$$$
