1HWW_SWA_A_1103
     RDKit          3D

 12 13  0  0  0  0  0  0  0  0999 V2000
   31.1052   65.8458   10.3329 C   0  0  1  0  0  0  0  0  0  0  0  0
   30.4552   64.6686   10.7574 O   0  0  0  0  0  0  0  0  0  0  0  0
   31.5001   65.7337    8.9190 C   0  0  1  0  0  0  0  0  0  0  0  0
   31.0955   66.7509    8.0301 N   0  0  0  0  0  0  0  0  0  0  0  0
   30.7692   68.0105    8.6343 C   0  0  0  0  0  0  0  0  0  0  0  0
   29.5907   67.6820    9.5468 C   0  0  0  0  0  0  0  0  0  0  0  0
   30.2494   66.9876   10.7296 C   0  0  0  0  0  0  0  0  0  0  0  0
   32.0139   66.8363    6.9384 C   0  0  0  0  0  0  0  0  0  0  0  0
   33.3203   66.2551    7.3985 C   0  0  1  0  0  0  0  0  0  0  0  0
   34.3189   67.2262    7.5144 O   0  0  0  0  0  0  0  0  0  0  0  0
   33.0180   65.7205    8.7592 C   0  0  1  0  0  0  0  0  0  0  0  0
   33.5336   66.5580    9.7659 O   0  0  0  0  0  0  0  0  0  0  0  0
  1  2  1  6
  1  3  1  0
  3  4  1  6
  4  5  1  0
  5  6  1  0
  1  7  1  0
  6  7  1  0
  4  8  1  0
  8  9  1  0
  9 10  1  1
  3 11  1  0
  9 11  1  0
 11 12  1  1
M  END
$$$$
