1HWW_SWA_A_1103
     RDKit          3D

 12 13  0  0  0  0  0  0  0  0999 V2000
   49.0477   45.3829    4.5256 C   0  0  1  0  0  0  0  0  0  0  0  0
   47.6486   45.3305    4.3573 O   0  0  0  0  0  0  0  0  0  0  0  0
   49.5935   44.0290    4.7168 C   0  0  1  0  0  0  0  0  0  0  0  0
   50.6476   43.6097    3.8793 N   0  0  0  0  0  0  0  0  0  0  0  0
   51.4072   44.6594    3.2635 C   0  0  0  0  0  0  0  0  0  0  0  0
   50.3824   45.3943    2.4039 C   0  0  0  0  0  0  0  0  0  0  0  0
   49.5925   46.2050    3.4207 C   0  0  0  0  0  0  0  0  0  0  0  0
   51.4342   42.6200    4.5459 C   0  0  0  0  0  0  0  0  0  0  0  0
   51.2281   42.7969    6.0233 C   0  0  1  0  0  0  0  0  0  0  0  0
   52.3794   43.2619    6.6653 O   0  0  0  0  0  0  0  0  0  0  0  0
   50.1743   43.8502    6.1170 C   0  0  1  0  0  0  0  0  0  0  0  0
   50.7223   45.0932    6.4845 O   0  0  0  0  0  0  0  0  0  0  0  0
  1  2  1  6
  1  3  1  0
  3  4  1  6
  4  5  1  0
  5  6  1  0
  1  7  1  0
  6  7  1  0
  4  8  1  0
  8  9  1  0
  9 10  1  1
  3 11  1  0
  9 11  1  0
 11 12  1  6
M  END
$$$$
