1HWW_SWA_A_1103
     RDKit          3D

 12 13  0  0  0  0  0  0  0  0999 V2000
   58.2272   72.1497    4.4336 C   0  0  1  0  0  0  0  0  0  0  0  0
   56.9531   72.6868    4.1563 O   0  0  0  0  0  0  0  0  0  0  0  0
   58.6411   71.2288    3.3621 C   0  0  1  0  0  0  0  0  0  0  0  0
   59.8930   71.4387    2.7481 N   0  0  0  0  0  0  0  0  0  0  0  0
   60.8415   72.1954    3.5135 C   0  0  0  0  0  0  0  0  0  0  0  0
   60.1666   73.5528    3.6902 C   0  0  0  0  0  0  0  0  0  0  0  0
   59.1204   73.2844    4.7618 C   0  0  0  0  0  0  0  0  0  0  0  0
   60.3955   70.2036    2.2335 C   0  0  0  0  0  0  0  0  0  0  0  0
   59.7363   69.0920    2.9990 C   0  0  1  0  0  0  0  0  0  0  0  0
   60.6379   68.4093    3.8206 O   0  0  0  0  0  0  0  0  0  0  0  0
   58.7409   69.7909    3.8647 C   0  0  1  0  0  0  0  0  0  0  0  0
   59.1824   69.8633    5.1990 O   0  0  0  0  0  0  0  0  0  0  0  0
  1  2  1  6
  1  3  1  0
  3  4  1  1
  4  5  1  0
  5  6  1  0
  1  7  1  0
  6  7  1  0
  4  8  1  0
  8  9  1  0
  9 10  1  1
  3 11  1  0
  9 11  1  0
 11 12  1  1
M  END
$$$$
