7CNS_PMV_A_501
     RDKit          3D

 14 13  0  0  0  0  0  0  0  0999 V2000
    5.6914  -10.8716   -7.1042 O   0  0  0  0  0  0  0  0  0  0  0  0
    5.0872  -11.6091   -5.7083 P   0  0  2  0  0  0  0  0  0  0  0  0
    3.7579  -10.6975   -5.1545 O   0  0  0  0  0  0  0  0  0  0  0  0
    6.1334  -11.7888   -4.6521 O   0  0  0  0  0  0  0  0  0  0  0  0
    4.5325  -13.1480   -6.1667 O   0  0  0  0  0  0  0  0  0  0  0  0
    3.7865  -13.7102   -5.0992 C   0  0  0  0  0  0  0  0  0  0  0  0
    3.3615  -15.0681   -5.5677 C   0  0  0  0  0  0  0  0  0  0  0  0
    2.4958  -15.7847   -4.5549 C   0  0  2  0  0  0  0  0  0  0  0  0
    2.7215  -15.3512   -3.2758 O   0  0  0  0  0  0  0  0  0  0  0  0
    2.5863  -17.2692   -4.6757 C   0  0  0  0  0  0  0  0  0  0  0  0
    1.0541  -15.4067   -4.9549 C   0  0  0  0  0  0  0  0  0  0  0  0
    0.7283  -14.0288   -4.5505 C   0  0  0  0  0  0  0  0  0  0  0  0
    0.1691  -13.0623   -5.3672 O   0  0  0  0  0  0  0  0  0  0  0  0
    0.9727  -13.6685   -3.3563 O   0  0  0  0  0  0  0  0  0  0  0  0
  2  1  1  6
  2  3  1  0
  2  4  2  0
  2  5  1  0
  5  6  1  0
  6  7  1  0
  7  8  1  0
  8  9  1  0
  8 10  1  1
  8 11  1  0
 11 12  1  0
 12 13  1  0
 12 14  2  0
M  END
$$$$
