6XUM_30L_A_401
     RDKit          3D

 25 26  0  0  0  0  0  0  0  0999 V2000
   99.3992   13.1049   73.4323 N   0  0  0  0  0  0  0  0  0  0  0  0
  100.1886   12.0981   74.1278 C   0  0  0  0  0  0  0  0  0  0  0  0
   99.4632   10.8174   74.2793 C   0  0  0  0  0  0  0  0  0  0  0  0
   98.2244   10.5500   73.7586 C   0  0  0  0  0  0  0  0  0  0  0  0
   97.5959    9.3315   73.9209 C   0  0  0  0  0  0  0  0  0  0  0  0
   96.3115    9.1125   73.3575 N   0  0  0  0  0  0  0  0  0  0  0  0
   95.7328    8.0067   73.5352 O   0  0  0  0  0  0  0  0  0  0  0  0
   95.6891   10.0680   72.6295 O   0  0  0  0  0  0  0  0  0  0  0  0
   98.2026    8.3171   74.6277 C   0  0  0  0  0  0  0  0  0  0  0  0
   99.4553    8.5721   75.1609 C   0  0  0  0  0  0  0  0  0  0  0  0
  100.0827    9.8030   74.9926 C   0  0  0  0  0  0  0  0  0  0  0  0
   98.3804   13.8703   74.0488 C   0  0  0  0  0  0  0  0  0  0  0  0
   98.2637   13.7047   75.3000 O   0  0  0  0  0  0  0  0  0  0  0  0
   97.4895   14.7954   73.3956 C   0  0  0  0  0  0  0  0  0  0  0  0
   97.6248   14.9426   72.0149 C   0  0  0  0  0  0  0  0  0  0  0  0
   96.8388   15.7903   71.2705 C   0  0  0  0  0  0  0  0  0  0  0  0
   95.8604   16.5504   71.8659 C   0  0  0  0  0  0  0  0  0  0  0  0
   95.1057   17.3705   71.1181 F   0  0  0  0  0  0  0  0  0  0  0  0
   95.7179   16.4116   73.2377 C   0  0  0  0  0  0  0  0  0  0  0  0
   96.5111   15.5555   73.9879 C   0  0  0  0  0  0  0  0  0  0  0  0
   96.3278   15.4594   75.3420 O   0  0  0  0  0  0  0  0  0  0  0  0
   95.5509   16.3922   76.0355 C   0  0  0  0  0  0  0  0  0  0  0  0
   95.4017   15.9210   77.4463 C   0  0  0  0  0  0  0  0  0  0  0  0
   96.0174   14.8765   77.7806 O   0  0  0  0  0  0  0  0  0  0  0  0
   94.6151   16.5915   78.3798 O   0  0  0  0  0  0  0  0  0  0  0  0
  1  2  1  0
  2  3  1  0
  3  4  2  0
  4  5  1  0
  5  6  1  0
  6  7  2  0
  6  8  1  0
  5  9  2  0
  9 10  1  0
 10 11  2  0
  3 11  1  0
  1 12  1  0
 12 13  2  0
 12 14  1  0
 14 15  2  0
 15 16  1  0
 16 17  2  0
 17 18  1  0
 17 19  1  0
 14 20  1  0
 19 20  2  0
 20 21  1  0
 21 22  1  0
 22 23  1  0
 23 24  2  0
 23 25  1  0
M  CHG  2   6   1   8  -1
M  END
$$$$
