8G6P_API_A_809
     RDKit          3D

 27 26  0  0  0  0  0  0  0  0999 V2000
   -1.4145   -2.9002   -2.8010 C   0  0  0  0  0  0  0  0  0  0  0  0
   -0.9478   -1.8736   -3.7952 C   0  0  1  0  0  0  0  0  0  0  0  0
   -1.6133   -0.5020   -3.5465 C   0  0  0  0  0  0  0  0  0  0  0  0
   -3.0914   -0.6376   -3.1479 C   0  0  0  0  0  0  0  0  0  0  0  0
   -3.7852   -1.7311   -3.9797 C   0  0  0  0  0  0  0  0  0  0  0  0
   -2.9719   -2.2174   -5.2026 C   0  0  1  0  0  0  0  0  0  0  0  0
   -1.5041   -1.9147   -5.0562 C   0  0  0  0  0  0  0  0  0  0  0  0
   -2.3365   -3.7058   -3.1019 O   0  0  0  0  0  0  0  0  0  0  0  0
   -0.8134   -2.9726   -1.5481 O   0  0  0  0  0  0  0  0  0  0  0  0
   -0.6661   -2.3704   -5.8808 O   0  0  0  0  0  0  0  0  0  0  0  0
   -1.0650   -1.1616   -3.9718 O   0  0  0  0  0  0  0  0  0  0  0  0
    0.5116   -1.7661   -3.7362 N   0  0  0  0  0  0  0  0  0  0  0  0
   -3.1931   -3.6372   -5.4977 N   0  0  0  0  0  0  0  0  0  0  0  0
   -1.2253   -2.2235   -4.8149 H   0  0  0  0  0  0  0  0  0  0  0  0
   -1.0607    0.0476   -2.7523 H   0  0  0  0  0  0  0  0  0  0  0  0
   -1.5512    0.0987   -4.4807 H   0  0  0  0  0  0  0  0  0  0  0  0
   -3.5996    0.3344   -3.3164 H   0  0  0  0  0  0  0  0  0  0  0  0
   -3.1509   -0.8904   -2.0677 H   0  0  0  0  0  0  0  0  0  0  0  0
   -4.0009   -2.6026   -3.3234 H   0  0  0  0  0  0  0  0  0  0  0  0
   -4.7642   -1.3460   -4.3424 H   0  0  0  0  0  0  0  0  0  0  0  0
   -3.3322   -1.6382   -6.0813 H   0  0  0  0  0  0  0  0  0  0  0  0
   -1.1094   -3.6635   -0.8690 H   0  0  0  0  0  0  0  0  0  0  0  0
   -0.0806   -0.9604   -3.8434 H   0  0  0  0  0  0  0  0  0  0  0  0
    0.8343   -1.1578   -4.5238 H   0  0  0  0  0  0  0  0  0  0  0  0
    0.7917   -1.2937   -2.8452 H   0  0  0  0  0  0  0  0  0  0  0  0
   -2.8510   -4.2312   -4.7090 H   0  0  0  0  0  0  0  0  0  0  0  0
   -4.2204   -3.8063   -5.5985 H   0  0  0  0  0  0  0  0  0  0  0  0
  1  2  1  0
  2  3  1  0
  3  4  1  0
  4  5  1  0
  5  6  1  0
  6  7  1  0
  1  8  2  0
  1  9  1  0
  7 10  2  0
  7 11  1  0
  2 12  1  0
  6 13  1  0
  2 14  1  1
  3 15  1  0
  3 16  1  0
  4 17  1  0
  4 18  1  0
  5 19  1  0
  5 20  1  0
  6 21  1  1
  9 22  1  0
 11 23  1  0
 12 24  1  0
 12 25  1  0
 13 26  1  0
 13 27  1  0
M  END
