7JHQ_VAJ_A_301
     RDKit          3D

 28 29  0  0  0  0  0  0  0  0999 V2000
   33.3010  -62.2249    5.2805 C   0  0  0  0  0  0  0  0  0  0  0  0
   34.7034  -62.2312    5.3728 C   0  0  0  0  0  0  0  0  0  0  0  0
   35.3860  -61.1247    5.8859 C   0  0  0  0  0  0  0  0  0  0  0  0
   34.6815  -59.9871    6.3168 C   0  0  0  0  0  0  0  0  0  0  0  0
   35.4069  -58.8108    6.8617 C   0  0  0  0  0  0  0  0  0  0  0  0
   37.2617  -57.8785    8.1273 C   0  0  0  0  0  0  0  0  0  0  0  0
   36.7820  -56.5881    7.8967 C   0  0  0  0  0  0  0  0  0  0  0  0
   35.1000  -55.0222    6.8956 C   0  0  0  0  0  0  0  0  0  0  0  0
   32.5744  -63.3943    4.7386 C   0  0  0  0  0  0  0  0  0  0  0  0
   33.2065  -64.4050    4.3280 O   0  0  0  0  0  0  0  0  0  0  0  0
   35.6105  -56.3886    7.1461 C   0  0  0  0  0  0  0  0  0  0  0  0
   34.9291  -57.5067    6.6322 C   0  0  0  0  0  0  0  0  0  0  0  0
   33.2789  -59.9820    6.2239 C   0  0  0  0  0  0  0  0  0  0  0  0
   32.5963  -61.0890    5.7118 C   0  0  0  0  0  0  0  0  0  0  0  0
   36.5813  -58.9840    7.6143 C   0  0  0  0  0  0  0  0  0  0  0  0
   31.1831  -63.3893    4.6768 O   0  0  0  0  0  0  0  0  0  0  0  0
   35.7174  -54.0178    7.3429 O   0  0  0  0  0  0  0  0  0  0  0  0
   33.9311  -54.8324    6.1628 O   0  0  0  0  0  0  0  0  0  0  0  0
   35.2753  -63.0905    5.0454 H   0  0  0  0  0  0  0  0  0  0  0  0
   36.4676  -61.1523    5.9292 H   0  0  0  0  0  0  0  0  0  0  0  0
   38.1627  -58.0227    8.7095 H   0  0  0  0  0  0  0  0  0  0  0  0
   37.3281  -55.7473    8.3059 H   0  0  0  0  0  0  0  0  0  0  0  0
   34.0355  -57.3635    6.0372 H   0  0  0  0  0  0  0  0  0  0  0  0
   32.7070  -59.1278    6.5642 H   0  0  0  0  0  0  0  0  0  0  0  0
   31.5153  -61.0550    5.6573 H   0  0  0  0  0  0  0  0  0  0  0  0
   36.9638  -59.9756    7.8213 H   0  0  0  0  0  0  0  0  0  0  0  0
   30.6720  -64.2160    4.3913 H   0  0  0  0  0  0  0  0  0  0  0  0
   33.6874  -53.9187    5.7995 H   0  0  0  0  0  0  0  0  0  0  0  0
  1  2  2  0
  2  3  1  0
  3  4  2  0
  4  5  1  0
  6  7  2  0
  1  9  1  0
  9 10  2  0
  7 11  1  0
  8 11  1  0
  5 12  1  0
 11 12  2  0
  4 13  1  0
  1 14  1  0
 13 14  2  0
  5 15  2  0
  6 15  1  0
  9 16  1  0
  8 17  2  0
  8 18  1  0
  2 19  1  0
  3 20  1  0
  6 21  1  0
  7 22  1  0
 12 23  1  0
 13 24  1  0
 14 25  1  0
 15 26  1  0
 16 27  1  0
 18 28  1  0
M  END
