8A2D_KXY_A_1103
     RDKit          3D

 49 56  0  0  0  0  0  0  0  0999 V2000
  -13.7578  -13.7734   24.1243 C   0  0  1  0  0  0  0  0  0  0  0  0
  -14.6390  -12.6650   24.6099 C   0  0  0  0  0  0  0  0  0  0  0  0
  -15.7307  -17.5739   21.9852 C   0  0  0  0  0  0  0  0  0  0  0  0
  -14.2334  -14.2549   22.7830 C   0  0  0  0  0  0  0  0  0  0  0  0
  -14.6442  -15.5514   22.4564 C   0  0  0  0  0  0  0  0  0  0  0  0
  -14.8338  -16.9130   23.0098 C   0  0  0  0  0  0  0  0  0  0  0  0
  -14.8089  -17.4621   19.5373 C   0  0  0  0  0  0  0  0  0  0  0  0
   -9.7125  -11.5473   22.3439 C   0  0  0  0  0  0  0  0  0  0  0  0
  -14.6950  -11.5441   24.0438 O   0  0  0  0  0  0  0  0  0  0  0  0
  -10.0085  -11.1441   20.9618 C   0  0  0  0  0  0  0  0  0  0  0  0
  -15.9207  -11.8546   26.5920 C   0  0  0  0  0  0  0  0  0  0  0  0
   -3.2135   -3.5206   18.5320 C   0  0  1  0  0  0  0  0  0  0  0  0
  -16.8379  -10.4459   28.0801 C   0  0  0  0  0  0  0  0  0  0  0  0
  -10.6733  -12.1984   23.0920 C   0  0  0  0  0  0  0  0  0  0  0  0
  -10.3241  -12.5459   24.3813 C   0  0  0  0  0  0  0  0  0  0  0  0
  -11.4509  -13.1731   24.8964 C   0  0  0  0  0  0  0  0  0  0  0  0
   -9.0854  -12.2717   24.9275 C   0  0  0  0  0  0  0  0  0  0  0  0
   -5.4914   -9.3351   20.8282 C   0  0  0  0  0  0  0  0  0  0  0  0
   -4.4606  -10.1363   20.3829 C   0  0  0  0  0  0  0  0  0  0  0  0
   -3.4124   -9.5503   19.6977 C   0  0  0  0  0  0  0  0  0  0  0  0
  -15.4204  -16.8182   20.7323 C   0  0  2  0  0  0  0  0  0  0  0  0
  -14.9797  -15.5133   21.1631 N   0  0  0  0  0  0  0  0  0  0  0  0
  -14.8066  -14.2742   20.6523 C   0  0  0  0  0  0  0  0  0  0  0  0
  -14.3515  -13.5228   21.6548 N   0  0  0  0  0  0  0  0  0  0  0  0
  -16.2608  -16.9595   19.5167 C   0  0  0  0  0  0  0  0  0  0  0  0
  -12.4293  -13.2057   23.9739 N   0  0  0  0  0  0  0  0  0  0  0  0
   -8.4722  -11.2672   22.8764 C   0  0  0  0  0  0  0  0  0  0  0  0
   -8.1320  -11.6245   24.1822 C   0  0  0  0  0  0  0  0  0  0  0  0
   -8.7481  -12.6596   26.3115 C   0  0  1  0  0  0  0  0  0  0  0  0
   -8.1231  -13.8915   26.2392 F   0  0  0  0  0  0  0  0  0  0  0  0
   -7.8540  -11.7929   26.9091 F   0  0  0  0  0  0  0  0  0  0  0  0
   -7.4371  -10.5868   22.1369 C   0  0  0  0  0  0  0  0  0  0  0  0
   -6.5616  -10.0132   21.5361 C   0  0  0  0  0  0  0  0  0  0  0  0
   -3.4078   -8.1700   19.4665 C   0  0  0  0  0  0  0  0  0  0  0  0
   -4.4419   -7.3752   19.9150 C   0  0  0  0  0  0  0  0  0  0  0  0
   -5.4882   -7.9845   20.6029 C   0  0  0  0  0  0  0  0  0  0  0  0
   -2.2397   -7.6468   18.7161 C   0  0  0  0  0  0  0  0  0  0  0  0
  -11.9367  -12.6133   22.8976 N   0  0  0  0  0  0  0  0  0  0  0  0
  -15.4297  -12.9607   25.7777 N   0  0  0  0  0  0  0  0  0  0  0  0
  -15.4507  -10.0978   25.9497 S   0  0  0  0  0  0  0  0  0  0  0  0
  -16.3664   -9.3545   27.4029 C   0  0  0  0  0  0  0  0  0  0  0  0
  -16.5157  -11.5998   27.5254 N   0  0  0  0  0  0  0  0  0  0  0  0
   -3.2834   -5.8043   17.5956 C   0  0  0  0  0  0  0  0  0  0  0  0
   -4.1084   -4.6570   18.1254 C   0  0  0  0  0  0  0  0  0  0  0  0
   -2.1770   -4.0228   19.4880 C   0  0  0  0  0  0  0  0  0  0  0  0
   -2.4788   -5.4841   19.7858 C   0  0  0  0  0  0  0  0  0  0  0  0
   -2.3476   -6.2294   18.5817 N   0  0  0  0  0  0  0  0  0  0  0  0
   -2.5886   -2.8806   17.3092 C   0  0  0  0  0  0  0  0  0  0  0  0
   -2.0371   -1.6608   17.7501 O   0  0  0  0  0  0  0  0  0  0  0  0
  1  2  1  0
  1  4  1  0
  4  5  2  0
  5  6  1  0
  3  6  1  0
  2  9  2  0
  8 10  1  0
  8 14  1  0
 14 15  1  0
 15 16  2  0
 15 17  1  0
 18 19  2  0
 19 20  1  0
 21  7  1  6
  3 21  1  0
  5 22  1  0
 21 22  1  0
 22 23  1  0
 23 24  2  0
  4 24  1  0
  7 25  1  0
 21 25  1  0
  1 26  1  6
 16 26  1  0
  8 27  2  0
 27 28  1  0
 17 28  2  0
 17 29  1  0
 29 30  1  6
 29 31  1  0
 27 32  1  0
 18 33  1  0
 32 33  3  0
 20 34  2  0
 34 35  1  0
 35 36  2  0
 18 36  1  0
 34 37  1  0
 14 38  2  0
 26 38  1  0
  2 39  1  0
 11 39  1  0
 11 40  1  0
 13 41  2  0
 40 41  1  0
 11 42  2  0
 13 42  1  0
 12 44  1  0
 43 44  1  0
 12 45  1  0
 45 46  1  0
 43 47  1  0
 46 47  1  0
 37 47  1  0
 12 48  1  6
 48 49  1  0
M  END
$$$$
