1OF6_DTY_A_1370
     RDKit          3D

 24 24  0  0  0  0  0  0  0  0999 V2000
   49.6759   29.5920   63.3688 N   0  0  0  0  0  0  0  0  0  0  0  0
   48.6265   30.1983   62.5466 C   0  0  2  0  0  0  0  0  0  0  0  0
   48.0299   29.1568   61.6410 C   0  0  0  0  0  0  0  0  0  0  0  0
   47.0200   28.4965   62.0069 O   0  0  0  0  0  0  0  0  0  0  0  0
   49.1776   31.3934   61.7400 C   0  0  2  0  0  0  0  0  0  0  0  0
   50.6623   31.2689   61.5048 C   0  0  0  0  0  0  0  0  0  0  0  0
   51.1602   30.3427   60.5734 C   0  0  0  0  0  0  0  0  0  0  0  0
   51.5580   32.1131   62.1813 C   0  0  0  0  0  0  0  0  0  0  0  0
   52.5349   30.2524   60.3347 C   0  0  0  0  0  0  0  0  0  0  0  0
   52.9322   32.0206   61.9412 C   0  0  0  0  0  0  0  0  0  0  0  0
   53.4242   31.0888   61.0172 C   0  0  0  0  0  0  0  0  0  0  0  0
   54.7912   30.9880   60.7692 O   0  0  0  0  0  0  0  0  0  0  0  0
   48.6157   28.8981   60.4057 O   0  0  0  0  0  0  0  0  0  0  0  0
   50.4805   30.2558   63.4550 H   0  0  0  0  0  0  0  0  0  0  0  0
   49.2980   29.4376   64.3321 H   0  0  0  0  0  0  0  0  0  0  0  0
   47.8266   30.5667   63.2276 H   0  0  0  0  0  0  0  0  0  0  0  0
   48.9496   32.3469   62.2662 H   0  0  0  0  0  0  0  0  0  0  0  0
   48.6616   31.4416   60.7560 H   0  0  0  0  0  0  0  0  0  0  0  0
   50.4844   29.6940   60.0301 H   0  0  0  0  0  0  0  0  0  0  0  0
   51.1909   32.8434   62.8919 H   0  0  0  0  0  0  0  0  0  0  0  0
   52.9092   29.5342   59.6165 H   0  0  0  0  0  0  0  0  0  0  0  0
   53.6128   32.6750   62.4708 H   0  0  0  0  0  0  0  0  0  0  0  0
   55.4392   31.7039   61.0766 H   0  0  0  0  0  0  0  0  0  0  0  0
   48.2565   29.3260   59.5607 H   0  0  0  0  0  0  0  0  0  0  0  0
  2  1  1  0
  2  3  1  0
  3  4  2  0
  2  5  1  0
  5  6  1  0
  6  7  2  0
  6  8  1  0
  7  9  1  0
  8 10  2  0
  9 11  2  0
 10 11  1  0
 11 12  1  0
  3 13  1  0
  1 14  1  0
  1 15  1  0
  2 16  1  1
  5 17  1  1
  5 18  1  0
  7 19  1  0
  8 20  1  0
  9 21  1  0
 10 22  1  0
 12 23  1  0
 13 24  1  0
M  END
