7VWF_K55_B_502
     RDKit          3D

 60 61  0  0  0  0  0  0  0  0999 V2000
   23.0696  -16.4127   22.6696 O   0  0  0  0  0  0  0  0  0  0  0  0
   24.8932  -16.8282   23.9990 O   0  0  0  0  0  0  0  0  0  0  0  0
   23.6548  -16.6017   23.9178 C   0  0  0  0  0  0  0  0  0  0  0  0
   22.7909  -16.5823   25.1526 C   0  0  1  0  0  0  0  0  0  0  0  0
   23.0511  -15.3084   25.9923 C   0  0  2  0  0  0  0  0  0  0  0  0
   22.7709  -15.4698   27.4887 C   0  0  1  0  0  0  0  0  0  0  0  0
   21.2997  -16.8133   24.8049 C   0  0  1  0  0  0  0  0  0  0  0  0
   20.4407  -15.6206   25.1484 C   0  0  0  0  0  0  0  0  0  0  0  0
   19.1374  -15.5238   24.6430 C   0  0  0  0  0  0  0  0  0  0  0  0
   18.3025  -14.4547   25.0055 C   0  0  0  0  0  0  0  0  0  0  0  0
   18.7865  -13.4531   25.8730 C   0  0  0  0  0  0  0  0  0  0  0  0
   20.1033  -13.5461   26.3629 C   0  0  0  0  0  0  0  0  0  0  0  0
   20.9183  -14.6221   26.0077 C   0  0  0  0  0  0  0  0  0  0  0  0
   17.9412  -12.3901   26.2296 O   0  0  0  0  0  0  0  0  0  0  0  0
   17.3865  -12.1918   27.5279 C   0  0  1  0  0  0  0  0  0  0  0  0
   17.0605  -10.7108   27.7433 C   0  0  1  0  0  0  0  0  0  0  0  0
   15.7636  -10.4746   28.5350 C   0  0  2  0  0  0  0  0  0  0  0  0
   15.9350  -10.6986   30.0370 C   0  0  1  0  0  0  0  0  0  0  0  0
   16.8743  -14.4544   24.5186 C   0  0  1  0  0  0  0  0  0  0  0  0
   16.2768  -15.7696   24.7378 N   0  0  0  0  0  0  0  0  0  0  0  0
   14.8646  -15.9953   24.6167 C   0  0  0  0  0  0  0  0  0  0  0  0
   14.0553  -15.1346   25.0575 O   0  0  0  0  0  0  0  0  0  0  0  0
   14.3425  -17.2209   23.9723 C   0  0  0  0  0  0  0  0  0  0  0  0
   15.1311  -18.3824   23.8603 C   0  0  0  0  0  0  0  0  0  0  0  0
   14.6089  -19.5341   23.2629 C   0  0  0  0  0  0  0  0  0  0  0  0
   13.2870  -19.5587   22.7886 C   0  0  0  0  0  0  0  0  0  0  0  0
   12.5070  -18.3954   22.8880 C   0  0  0  0  0  0  0  0  0  0  0  0
   13.0244  -17.2440   23.4879 C   0  0  0  0  0  0  0  0  0  0  0  0
   12.7436  -20.7862   22.1016 C   0  0  1  0  0  0  0  0  0  0  0  0
   16.3915  -18.4248   24.3611 F   0  0  0  0  0  0  0  0  0  0  0  0
   11.3960  -20.9435   22.3766 F   0  0  0  0  0  0  0  0  0  0  0  0
   12.9124  -20.6553   20.7360 F   0  0  0  0  0  0  0  0  0  0  0  0
   13.4080  -21.9221   22.5311 F   0  0  0  0  0  0  0  0  0  0  0  0
   23.5770  -16.6287   21.8198 H   0  0  0  0  0  0  0  0  0  0  0  0
   23.1186  -17.4446   25.7737 H   0  0  0  0  0  0  0  0  0  0  0  0
   22.4125  -14.4856   25.6027 H   0  0  0  0  0  0  0  0  0  0  0  0
   24.1045  -14.9806   25.8583 H   0  0  0  0  0  0  0  0  0  0  0  0
   21.9293  -16.1727   27.6592 H   0  0  0  0  0  0  0  0  0  0  0  0
   23.6704  -15.8314   28.0262 H   0  0  0  0  0  0  0  0  0  0  0  0
   22.4897  -14.4840   27.9159 H   0  0  0  0  0  0  0  0  0  0  0  0
   21.1872  -17.0788   23.7317 H   0  0  0  0  0  0  0  0  0  0  0  0
   20.9259  -17.6868   25.3830 H   0  0  0  0  0  0  0  0  0  0  0  0
   18.7597  -16.2985   23.9856 H   0  0  0  0  0  0  0  0  0  0  0  0
   20.5056  -12.7958   27.0293 H   0  0  0  0  0  0  0  0  0  0  0  0
   21.9217  -14.6776   26.4102 H   0  0  0  0  0  0  0  0  0  0  0  0
   16.4688  -12.8058   27.6480 H   0  0  0  0  0  0  0  0  0  0  0  0
   18.1243  -12.5057   28.2976 H   0  0  0  0  0  0  0  0  0  0  0  0
   17.9112  -10.2212   28.2656 H   0  0  0  0  0  0  0  0  0  0  0  0
   16.9575  -10.2253   26.7484 H   0  0  0  0  0  0  0  0  0  0  0  0
   14.9525  -11.1288   28.1500 H   0  0  0  0  0  0  0  0  0  0  0  0
   15.4439   -9.4224   28.3740 H   0  0  0  0  0  0  0  0  0  0  0  0
   16.9314  -11.1394   30.2526 H   0  0  0  0  0  0  0  0  0  0  0  0
   15.8561   -9.7253   30.5659 H   0  0  0  0  0  0  0  0  0  0  0  0
   15.1407  -11.3680   30.4277 H   0  0  0  0  0  0  0  0  0  0  0  0
   16.2555  -13.6770   25.0142 H   0  0  0  0  0  0  0  0  0  0  0  0
   16.8678  -14.2253   23.4309 H   0  0  0  0  0  0  0  0  0  0  0  0
   16.9003  -16.5562   25.0275 H   0  0  0  0  0  0  0  0  0  0  0  0
   15.2386  -20.4110   23.1780 H   0  0  0  0  0  0  0  0  0  0  0  0
   11.4953  -18.3756   22.5021 H   0  0  0  0  0  0  0  0  0  0  0  0
   12.3977  -16.3633   23.5580 H   0  0  0  0  0  0  0  0  0  0  0  0
  1  3  1  0
  2  3  2  0
  3  4  1  0
  4  5  1  0
  5  6  1  0
  4  7  1  0
  7  8  1  0
  8  9  2  0
  9 10  1  0
 10 11  2  0
 11 12  1  0
  8 13  1  0
 12 13  2  0
 11 14  1  0
 14 15  1  0
 15 16  1  0
 16 17  1  0
 17 18  1  0
 10 19  1  0
 19 20  1  0
 20 21  1  0
 21 22  2  0
 21 23  1  0
 23 24  2  0
 24 25  1  0
 25 26  2  0
 26 27  1  0
 23 28  1  0
 27 28  2  0
 26 29  1  0
 24 30  1  0
 29 31  1  6
 29 32  1  0
 29 33  1  0
  1 34  1  0
  4 35  1  1
  5 36  1  6
  5 37  1  0
  6 38  1  6
  6 39  1  0
  6 40  1  0
  7 41  1  6
  7 42  1  0
  9 43  1  0
 12 44  1  0
 13 45  1  0
 15 46  1  6
 15 47  1  0
 16 48  1  1
 16 49  1  0
 17 50  1  6
 17 51  1  0
 18 52  1  6
 18 53  1  0
 18 54  1  0
 19 55  1  1
 19 56  1  0
 20 57  1  0
 25 58  1  0
 27 59  1  0
 28 60  1  0
M  END
