8HFN_XGC_A_502
     RDKit          3D

 24 25  0  0  0  0  0  0  0  0999 V2000
   83.2665  -12.1969   -0.9877 C   0  0  0  0  0  0  0  0  0  0  0  0
   80.8328  -17.8922   -1.7805 C   0  0  0  0  0  0  0  0  0  0  0  0
   81.2974  -19.1445   -1.4116 C   0  0  0  0  0  0  0  0  0  0  0  0
   82.5108  -19.6437   -1.8819 C   0  0  0  0  0  0  0  0  0  0  0  0
   82.7902  -17.6209   -3.0963 C   0  0  0  0  0  0  0  0  0  0  0  0
   81.7634  -13.4843   -3.5795 C   0  0  0  0  0  0  0  0  0  0  0  0
   81.1559  -15.7765   -3.0683 C   0  0  0  0  0  0  0  0  0  0  0  0
   79.8164  -15.5158   -3.3728 C   0  0  0  0  0  0  0  0  0  0  0  0
   80.4411  -13.2330   -3.8786 C   0  0  0  0  0  0  0  0  0  0  0  0
   79.4913  -14.2342   -3.7750 C   0  0  0  0  0  0  0  0  0  0  0  0
   83.9029  -12.2885    0.3176 C   0  0  2  0  0  0  0  0  0  0  0  0
   81.5818  -17.1099   -2.6349 C   0  0  0  0  0  0  0  0  0  0  0  0
   84.2014  -21.3874   -2.0217 C   0  0  0  0  0  0  0  0  0  0  0  0
   84.1337  -13.6697    0.8546 C   0  0  0  0  0  0  0  0  0  0  0  0
   82.0892  -14.7608   -3.1786 C   0  0  0  0  0  0  0  0  0  0  0  0
   83.9682  -12.3604   -2.2237 N   0  0  0  0  0  0  0  0  0  0  0  0
   83.2035  -18.8439   -2.7116 N   0  0  0  0  0  0  0  0  0  0  0  0
   83.0876  -11.5676    1.2780 N   0  0  0  0  0  0  0  0  0  0  0  0
   82.0281  -11.9611   -1.0788 O   0  0  0  0  0  0  0  0  0  0  0  0
   82.9753  -20.9036   -1.5089 O   0  0  0  0  0  0  0  0  0  0  0  0
   82.4153  -10.9419   -3.8190 O   0  0  0  0  0  0  0  0  0  0  0  0
   83.9560  -12.6070   -4.8374 O   0  0  0  0  0  0  0  0  0  0  0  0
   85.3045  -13.6499    2.2397 S   0  0  0  0  0  0  0  0  0  0  0  0
   83.0274  -12.3049   -3.6761 S   0  0  2  0  0  6  0  0  0  0  0  0
  2  3  2  0
  3  4  1  0
  7  8  1  0
  6  9  2  0
  8 10  2  0
  9 10  1  0
  1 11  1  0
  2 12  1  0
  5 12  2  0
  7 12  1  0
 11 14  1  0
  7 15  2  0
  6 15  1  0
  1 16  1  0
  4 17  2  0
  5 17  1  0
 11 18  1  1
  1 19  2  0
 13 20  1  6
  4 20  1  0
 14 23  1  1
 21 24  2  0
  6 24  1  0
 22 24  2  0
 24 16  1  1
M  END
$$$$
