6YMS_OZH_E_409
     RDKit          3D

 67 68  0  0  0  0  0  0  0  0999 V2000
   35.5732   37.3171   -1.9216 O   0  0  0  0  0  0  0  0  0  0  0  0
   34.0937   40.6040   -6.6007 O   0  0  0  0  0  0  0  0  0  0  0  0
   38.9465   37.7879   -1.6945 C   0  0  2  0  0  0  0  0  0  0  0  0
   38.6037   38.7599   -2.8288 C   0  0  2  0  0  0  0  0  0  0  0  0
   37.7414   39.9222   -2.3150 C   0  0  2  0  0  0  0  0  0  0  0  0
   35.3753   40.1257   -9.7802 C   0  0  1  0  0  0  0  0  0  0  0  0
   35.6740   38.9392   -4.2062 N   0  0  0  0  0  0  0  0  0  0  0  0
   35.7029   39.7751   -6.6108 C   0  0  2  0  0  0  0  0  0  0  0  0
   35.9525   39.9875   -5.1482 C   0  0  0  0  0  0  0  0  0  0  0  0
   36.5019   37.7296   -4.1138 C   0  0  1  0  0  0  0  0  0  0  0  0
   38.0162   38.0669   -4.0894 C   0  0  2  0  0  0  0  0  0  0  0  0
   36.4083   41.0948   -4.7533 O   0  0  0  0  0  0  0  0  0  0  0  0
   34.2179   39.1938  -10.1800 C   0  0  2  0  0  0  0  0  0  0  0  0
   34.1157   37.9863   -9.2827 C   0  0  0  0  0  0  0  0  0  0  0  0
   35.1507   36.0919   -8.1651 C   0  0  0  0  0  0  0  0  0  0  0  0
   35.2556   37.2202   -8.9840 C   0  0  0  0  0  0  0  0  0  0  0  0
   33.9103   35.7201   -7.6399 C   0  0  0  0  0  0  0  0  0  0  0  0
   32.3013   41.9393   -5.7052 C   0  0  0  0  0  0  0  0  0  0  0  0
   31.8055   42.6017   -4.5710 C   0  0  0  0  0  0  0  0  0  0  0  0
   33.1409   40.7025   -5.5445 C   0  0  1  0  0  0  0  0  0  0  0  0
   33.7993   40.9112   -7.9333 C   0  0  0  0  0  0  0  0  0  0  0  0
   32.8721   37.6049   -8.7514 C   0  0  0  0  0  0  0  0  0  0  0  0
   32.7721   36.4761   -7.9329 C   0  0  0  0  0  0  0  0  0  0  0  0
   36.0881   36.8366   -2.9665 C   0  0  0  0  0  0  0  0  0  0  0  0
   38.0158   39.3834   -9.7770 O   0  0  0  0  0  0  0  0  0  0  0  0
   31.0126   43.7439   -4.7136 C   0  0  0  0  0  0  0  0  0  0  0  0
   30.7192   44.2378   -5.9875 C   0  0  0  0  0  0  0  0  0  0  0  0
   31.2271   43.5966   -7.1201 C   0  0  0  0  0  0  0  0  0  0  0  0
   36.3566   37.5624   -8.9110 O   0  0  0  0  0  0  0  0  0  0  0  0
   32.6014   40.9751   -8.3256 O   0  0  0  0  0  0  0  0  0  0  0  0
   32.0172   42.4517   -6.9817 C   0  0  0  0  0  0  0  0  0  0  0  0
   36.9711   39.8120   -7.3429 N   0  0  0  0  0  0  0  0  0  0  0  0
   34.8782   41.1399   -8.8481 N   0  0  0  0  0  0  0  0  0  0  0  0
   36.2152   35.4565   -3.0897 O   0  0  0  0  0  0  0  0  0  0  0  0
   36.7414   39.2092   -8.9808 P   0  0  2  0  0  5  0  0  0  0  0  0
   39.7792   37.1192   -1.9984 H   0  0  0  0  0  0  0  0  0  0  0  0
   38.0637   37.1769   -1.4130 H   0  0  0  0  0  0  0  0  0  0  0  0
   39.2728   38.3559   -0.7971 H   0  0  0  0  0  0  0  0  0  0  0  0
   39.5659   39.2151   -3.1556 H   0  0  0  0  0  0  0  0  0  0  0  0
   38.2897   40.5149   -1.5512 H   0  0  0  0  0  0  0  0  0  0  0  0
   36.8200   39.5219   -1.8398 H   0  0  0  0  0  0  0  0  0  0  0  0
   37.4273   40.5881   -3.1425 H   0  0  0  0  0  0  0  0  0  0  0  0
   35.7798   40.6083  -10.6951 H   0  0  0  0  0  0  0  0  0  0  0  0
   34.8418   39.0478   -3.5850 H   0  0  0  0  0  0  0  0  0  0  0  0
   35.0182   40.5704   -6.9798 H   0  0  0  0  0  0  0  0  0  0  0  0
   35.2012   38.7917   -6.7466 H   0  0  0  0  0  0  0  0  0  0  0  0
   36.3193   37.1219   -5.0275 H   0  0  0  0  0  0  0  0  0  0  0  0
   38.5898   37.1314   -4.2690 H   0  0  0  0  0  0  0  0  0  0  0  0
   38.2359   38.7060   -4.9675 H   0  0  0  0  0  0  0  0  0  0  0  0
   34.3849   38.8425  -11.2221 H   0  0  0  0  0  0  0  0  0  0  0  0
   33.2603   39.7594  -10.1878 H   0  0  0  0  0  0  0  0  0  0  0  0
   36.0311   35.5043   -7.9394 H   0  0  0  0  0  0  0  0  0  0  0  0
   36.2223   37.4916   -9.3891 H   0  0  0  0  0  0  0  0  0  0  0  0
   33.8310   34.8461   -7.0066 H   0  0  0  0  0  0  0  0  0  0  0  0
   32.0281   42.2288   -3.5789 H   0  0  0  0  0  0  0  0  0  0  0  0
   32.5136   39.7847   -5.5072 H   0  0  0  0  0  0  0  0  0  0  0  0
   33.6880   40.7608   -4.5797 H   0  0  0  0  0  0  0  0  0  0  0  0
   31.9816   38.1808   -8.9717 H   0  0  0  0  0  0  0  0  0  0  0  0
   31.8114   36.1869   -7.5265 H   0  0  0  0  0  0  0  0  0  0  0  0
   30.6303   44.2502   -3.8370 H   0  0  0  0  0  0  0  0  0  0  0  0
   30.1087   45.1244   -6.0963 H   0  0  0  0  0  0  0  0  0  0  0  0
   31.0074   43.9865   -8.1058 H   0  0  0  0  0  0  0  0  0  0  0  0
   36.9172   37.1406   -9.6100 H   0  0  0  0  0  0  0  0  0  0  0  0
   32.4006   41.9629   -7.8687 H   0  0  0  0  0  0  0  0  0  0  0  0
   37.2648   40.8109   -7.4381 H   0  0  0  0  0  0  0  0  0  0  0  0
   35.3550   42.0695   -8.8186 H   0  0  0  0  0  0  0  0  0  0  0  0
   35.7030   34.8308   -2.4793 H   0  0  0  0  0  0  0  0  0  0  0  0
  3  4  1  0
  4  5  1  0
  7  9  1  0
  8  9  1  0
  7 10  1  0
 10 11  1  0
  4 11  1  0
  9 12  2  0
  6 13  1  0
 13 14  1  0
 14 16  1  0
 15 16  2  0
 15 17  1  0
 18 19  2  0
  2 20  1  0
 18 20  1  0
  2 21  1  0
 14 22  2  0
 22 23  1  0
 17 23  2  0
  1 24  2  0
 10 24  1  0
 19 26  1  0
 26 27  2  0
 27 28  1  0
 21 30  2  0
 18 31  1  0
 28 31  2  0
  8 32  1  0
  6 33  1  0
 21 33  1  0
 24 34  1  0
 25 35  2  0
 32 35  1  0
 35 29  1  1
  6 35  1  0
  3 36  1  6
  3 37  1  0
  3 38  1  0
  4 39  1  6
  5 40  1  1
  5 41  1  0
  5 42  1  0
  6 43  1  6
  7 44  1  0
  8 45  1  6
  8 46  1  0
 10 47  1  6
 11 48  1  6
 11 49  1  0
 13 50  1  6
 13 51  1  0
 15 52  1  0
 16 53  1  0
 17 54  1  0
 19 55  1  0
 20 56  1  1
 20 57  1  0
 22 58  1  0
 23 59  1  0
 26 60  1  0
 27 61  1  0
 28 62  1  0
 29 63  1  0
 31 64  1  0
 32 65  1  0
 33 66  1  0
 34 67  1  0
M  END
