1Q41_IXM_A_451
     RDKit          3D

 21 24  0  0  0  0  0  0  0  0999 V2000
   40.1225    4.0562   35.2803 C   0  0  0  0  0  0  0  0  0  0  0  0
   39.5843    5.4446   35.2373 C   0  0  0  0  0  0  0  0  0  0  0  0
   40.6050    3.8920   36.5449 C   0  0  0  0  0  0  0  0  0  0  0  0
   40.4151    5.0723   37.3134 N   0  0  0  0  0  0  0  0  0  0  0  0
   41.1715    2.6608   36.8513 C   0  0  0  0  0  0  0  0  0  0  0  0
   41.2447    1.6500   35.9245 C   0  0  0  0  0  0  0  0  0  0  0  0
   40.7550    1.8222   34.6472 C   0  0  0  0  0  0  0  0  0  0  0  0
   40.1961    3.0416   34.3501 C   0  0  0  0  0  0  0  0  0  0  0  0
   39.7652    6.0898   36.5138 C   0  0  0  0  0  0  0  0  0  0  0  0
   39.4847    7.2687   37.0081 C   0  0  0  0  0  0  0  0  0  0  0  0
   40.0177    7.7714   38.3014 C   0  0  0  0  0  0  0  0  0  0  0  0
   39.5248    9.0797   38.5487 N   0  0  0  0  0  0  0  0  0  0  0  0
   38.6991    9.4266   37.4613 C   0  0  0  0  0  0  0  0  0  0  0  0
   38.6643    8.3700   36.5436 C   0  0  0  0  0  0  0  0  0  0  0  0
   38.0003   10.5995   37.2569 C   0  0  0  0  0  0  0  0  0  0  0  0
   37.2429   10.7688   36.1382 C   0  0  0  0  0  0  0  0  0  0  0  0
   37.1920    9.7529   35.2269 C   0  0  0  0  0  0  0  0  0  0  0  0
   37.9014    8.5743   35.4444 C   0  0  0  0  0  0  0  0  0  0  0  0
   40.7875    7.2026   39.1154 O   0  0  0  0  0  0  0  0  0  0  0  0
   39.0654    5.8924   34.1850 N   0  0  0  0  0  0  0  0  0  0  0  0
   38.8107    5.2825   33.0203 O   0  0  0  0  0  0  0  0  0  0  0  0
  1  2  1  0
  1  3  2  0
  3  4  1  0
  3  5  1  0
  5  6  2  0
  6  7  1  0
  1  8  1  0
  7  8  2  0
  2  9  1  0
  4  9  1  0
  9 10  2  0
 10 11  1  0
 11 12  1  0
 12 13  1  0
 10 14  1  0
 13 14  2  0
 13 15  1  0
 15 16  2  0
 16 17  1  0
 14 18  1  0
 17 18  2  0
 11 19  2  0
  2 20  2  0
 20 21  1  0
M  END
$$$$
