7QK0_EBL_A_201
     RDKit          3D

 38 43  0  0  0  0  0  0  0  0999 V2000
  -38.4355   35.7988    8.7525 C   0  0  0  0  0  0  0  0  0  0  0  0
  -38.8471   34.8896   11.0410 C   0  0  2  0  0  0  0  0  0  0  0  0
  -39.0107   35.0661   12.4842 C   0  0  1  0  0  0  0  0  0  0  0  0
  -37.9831   34.7566   13.4952 C   0  0  0  0  0  0  0  0  0  0  0  0
  -38.4135   36.1961   13.2585 C   0  0  0  0  0  0  0  0  0  0  0  0
  -37.9622   32.8475    9.6416 C   0  0  0  0  0  0  0  0  0  0  0  0
  -38.7481   33.7524   13.5886 C   0  0  0  0  0  0  0  0  0  0  0  0
  -37.8470   34.9470   13.4241 C   0  0  1  0  0  0  0  0  0  0  0  0
  -37.9193   35.8653   14.6247 C   0  0  0  0  0  0  0  0  0  0  0  0
  -38.5783   35.1537   15.7960 C   0  0  1  0  0  0  0  0  0  0  0  0
  -37.7150   33.4050    8.3778 C   0  0  0  0  0  0  0  0  0  0  0  0
  -37.4616   32.6352    7.2712 C   0  0  0  0  0  0  0  0  0  0  0  0
  -37.2399   33.1595    6.1368 O   0  0  0  0  0  0  0  0  0  0  0  0
  -37.6973   34.7808    8.0902 O   0  0  0  0  0  0  0  0  0  0  0  0
  -38.1981   33.5790   10.8374 N   0  0  0  0  0  0  0  0  0  0  0  0
  -38.0899   35.8815   10.2478 C   0  0  2  0  0  0  0  0  0  0  0  0
  -38.3332   37.2059   10.5635 F   0  0  0  0  0  0  0  0  0  0  0  0
  -36.7356   35.6600   10.3978 F   0  0  0  0  0  0  0  0  0  0  0  0
  -37.4596   31.2970    7.4496 N   0  0  0  0  0  0  0  0  0  0  0  0
  -37.1950   30.4073    6.3109 C   0  0  0  0  0  0  0  0  0  0  0  0
  -37.6946   30.7365    8.6499 C   0  0  0  0  0  0  0  0  0  0  0  0
  -37.6821   29.3687    8.7549 C   0  0  0  0  0  0  0  0  0  0  0  0
  -37.9297   28.8134    9.9848 C   0  0  0  0  0  0  0  0  0  0  0  0
  -38.1909   29.5428   11.1268 C   0  0  0  0  0  0  0  0  0  0  0  0
  -38.2025   30.9400   11.0140 C   0  0  0  0  0  0  0  0  0  0  0  0
  -37.9546   31.4968    9.7863 C   0  0  0  0  0  0  0  0  0  0  0  0
  -38.4324   28.9442   12.3846 N   0  0  0  0  0  0  0  0  0  0  0  0
  -38.4087   29.5584   13.6429 C   0  0  0  0  0  0  0  0  0  0  0  0
  -38.4412   28.9231   14.8574 C   0  0  0  0  0  0  0  0  0  0  0  0
  -38.4209   27.1797   14.9348 Cl  0  0  0  0  0  0  0  0  0  0  0  0
  -38.4563   29.5996   16.0735 C   0  0  0  0  0  0  0  0  0  0  0  0
  -38.4362   30.9641   16.0464 N   0  0  0  0  0  0  0  0  0  0  0  0
  -38.4022   31.6085   14.8427 C   0  0  0  0  0  0  0  0  0  0  0  0
  -38.3892   30.9245   13.6892 N   0  0  0  0  0  0  0  0  0  0  0  0
  -38.3812   33.0301   14.7689 N   0  0  0  0  0  0  0  0  0  0  0  0
  -37.9645   33.7789   15.9593 C   0  0  0  0  0  0  0  0  0  0  0  0
  -38.5114   35.9889   17.0322 C   0  0  0  0  0  0  0  0  0  0  0  0
  -36.5310   34.5645   13.1813 O   0  0  0  0  0  0  0  0  0  0  0  0
  3  2  1  6
  3  4  1  0
  4  5  1  6
  5  3  1  1
  7  8  1  0
  9  8  1  1
  9 10  1  0
  6 11  2  0
 11 12  1  0
 12 13  2  0
 11 14  1  0
  1 14  1  6
  6 15  1  0
  2 15  1  1
  2 16  1  0
  1 16  1  0
 16 17  1  1
 16 18  1  0
 12 19  1  0
 20 19  1  6
 19 21  1  0
 21 22  2  0
 22 23  1  0
 23 24  2  0
 24 25  1  0
 25 26  2  0
 21 26  1  0
  6 26  1  0
 24 27  1  0
 27 28  1  0
 28 29  2  0
 29 30  1  0
 29 31  1  0
 31 32  2  0
 32 33  1  0
 33 34  2  0
 28 34  1  0
 33 35  1  0
  7 35  1  6
 10 36  1  0
 36 35  1  6
 10 37  1  1
  8 38  1  1
M  END
$$$$
