
     RDKit          3D

 44 48  0  0  0  0  0  0  0  0999 V2000
   -0.3884    7.0808    0.6533 C   0  0  0  0  0  0  0  0  0  0  0  0
   -3.3001    5.1453   15.8260 C   0  0  2  0  0  0  0  0  0  0  0  0
   -0.0845    6.0006   -1.4991 C   0  0  0  0  0  0  0  0  0  0  0  0
   -0.6178    7.0370   -0.7287 C   0  0  0  0  0  0  0  0  0  0  0  0
   -1.8085    8.8773    4.5909 C   0  0  1  0  0  0  0  0  0  0  0  0
   -2.6075    1.4507   18.0215 C   0  0  0  0  0  0  0  0  0  0  0  0
   -3.1421    6.6740   15.8234 C   0  0  1  0  0  0  0  0  0  0  0  0
   -1.2678    7.7258    3.7288 C   0  0  1  0  0  0  0  0  0  0  0  0
    0.3769    6.0711    1.2547 C   0  0  0  0  0  0  0  0  0  0  0  0
   -4.0360    7.0806   14.6712 C   0  0  1  0  0  0  0  0  0  0  0  0
   -1.8965    6.5454    4.4495 C   0  0  1  0  0  0  0  0  0  0  0  0
   -2.0262    3.2811   16.9134 C   0  0  0  0  0  0  0  0  0  0  0  0
   -3.8984    5.9206   13.6899 C   0  0  1  0  0  0  0  0  0  0  0  0
   -3.2900    7.0900    4.7482 C   0  0  1  0  0  0  0  0  0  0  0  0
   -0.6784    3.0633   17.1425 C   0  0  0  0  0  0  0  0  0  0  0  0
   -2.7204    6.0625   12.7170 C   0  0  0  0  0  0  0  0  0  0  0  0
   -3.9617    6.3696    5.9116 C   0  0  0  0  0  0  0  0  0  0  0  0
   -0.3426    1.9345   17.9070 C   0  0  0  0  0  0  0  0  0  0  0  0
   -0.9650    8.2141    1.4295 C   0  0  0  0  0  0  0  0  0  0  0  0
    0.9092    5.0373    0.4806 C   0  0  0  0  0  0  0  0  0  0  0  0
   -0.7878    4.8649   16.0018 C   0  0  0  0  0  0  0  0  0  0  0  0
    0.6790    5.0040   -0.8937 C   0  0  0  0  0  0  0  0  0  0  0  0
   -1.3351    1.1202   18.3300 N   0  0  0  0  0  0  0  0  0  0  0  0
   -3.0578    2.5215   17.3279 N   0  0  0  0  0  0  0  0  0  0  0  0
    0.9678    1.6175   18.2584 N   0  0  0  0  0  0  0  0  0  0  0  0
    0.0869    4.0506   16.5596 N   0  0  0  0  0  0  0  0  0  0  0  0
   -2.0775    4.4581   16.2128 N   0  0  0  0  0  0  0  0  0  0  0  0
   -0.6348    7.1986   10.6994 O   0  0  0  0  0  0  0  0  0  0  0  0
   -4.9933    6.7584    8.9992 O   0  0  0  0  0  0  0  0  0  0  0  0
   -1.9118   10.0969    3.8960 O   0  0  0  0  0  0  0  0  0  0  0  0
   -3.5814    7.3004   17.0379 O   0  0  0  0  0  0  0  0  0  0  0  0
   -2.6523    8.3902    9.6591 O   0  0  0  0  0  0  0  0  0  0  0  0
   -4.1110    4.5075    8.1184 O   0  0  0  0  0  0  0  0  0  0  0  0
   -1.8043    7.7475    2.3872 O   0  0  0  0  0  0  0  0  0  0  0  0
   -5.3935    7.1501   15.1432 O   0  0  0  0  0  0  0  0  0  0  0  0
   -2.5574    5.9202    9.4463 O   0  0  0  0  0  0  0  0  0  0  0  0
   -1.9302    5.3462    3.6907 O   0  0  0  0  0  0  0  0  0  0  0  0
   -3.6936    4.7312   14.4966 O   0  0  0  0  0  0  0  0  0  0  0  0
   -3.1075    8.4900    5.0551 O   0  0  0  0  0  0  0  0  0  0  0  0
   -3.0616    6.9638   11.6787 O   0  0  0  0  0  0  0  0  0  0  0  0
   -3.1968    6.5863    7.0894 O   0  0  0  0  0  0  0  0  0  0  0  0
   -0.6743    9.3854    1.2464 O   0  0  0  0  0  0  0  0  0  0  0  0
   -2.0913    7.0873   10.4095 P   0  0  1  0  0  5  0  0  0  0  0  0
   -3.7997    6.0407    8.4674 P   0  0  2  0  0  5  0  0  0  0  0  0
  3  4  4  0
  1  4  4  0
  2  7  1  0
  5  8  1  0
  1  9  4  0
  7 10  1  0
  8 11  1  0
 10 13  1  0
 11 14  1  0
 12 15  4  0
 13 16  1  6
 14 17  1  1
 15 18  4  0
  1 19  1  0
  9 20  4  0
 20 22  4  0
  3 22  4  0
  6 23  4  0
 18 23  4  0
 12 24  4  0
  6 24  4  0
 18 25  1  0
 21 26  4  0
 15 26  4  0
  2 27  1  6
 21 27  4  0
 12 27  4  0
  5 30  1  6
  7 31  1  1
 19 34  1  0
  8 34  1  6
 10 35  1  1
 11 37  1  6
 13 38  1  0
  2 38  1  0
  5 39  1  0
 14 39  1  0
 16 40  1  0
 17 41  1  0
 19 42  2  0
 36 43  1  0
 28 43  2  0
 43 32  1  6
 40 43  1  0
 41 44  1  0
 29 44  2  0
 44 33  1  6
 36 44  1  0
M  END
