8AQL_PLG_B_601
     RDKit          3D

 20 20  0  0  0  0  0  0  0  0999 V2000
    5.0281   54.7170    9.4372 N   0  0  0  0  0  0  0  0  0  0  0  0
    4.4502   55.0569    8.2749 C   0  0  0  0  0  0  0  0  0  0  0  0
    4.9596   56.1832    7.4227 C   0  0  0  0  0  0  0  0  0  0  0  0
    3.3509   54.3415    7.8547 C   0  0  0  0  0  0  0  0  0  0  0  0
    2.7415   54.6938    6.6360 O   0  0  0  0  0  0  0  0  0  0  0  0
    2.8265   53.2797    8.6025 C   0  0  0  0  0  0  0  0  0  0  0  0
    1.6510   52.6011    8.0478 C   0  0  0  0  0  0  0  0  0  0  0  0
    3.4403   52.9524    9.7929 C   0  0  0  0  0  0  0  0  0  0  0  0
    4.5377   53.6967   10.1720 C   0  0  0  0  0  0  0  0  0  0  0  0
    2.8992   51.8291   10.6010 C   0  0  0  0  0  0  0  0  0  0  0  0
    3.3717   50.6695   10.0087 O   0  0  0  0  0  0  0  0  0  0  0  0
    2.6814   49.2607   10.5918 P   0  0  1  0  0  5  0  0  0  0  0  0
    3.5162   48.0335   10.3624 O   0  0  0  0  0  0  0  0  0  0  0  0
    2.4236   49.4135   12.2758 O   0  0  0  0  0  0  0  0  0  0  0  0
    1.1537   49.1287    9.8781 O   0  0  0  0  0  0  0  0  0  0  0  0
   -0.3073   53.6012    5.1742 C   0  0  0  0  0  0  0  0  0  0  0  0
   -1.4030   53.9260    5.7254 O   0  0  0  0  0  0  0  0  0  0  0  0
   -0.2459   53.4024    3.7824 O   0  0  0  0  0  0  0  0  0  0  0  0
    0.9528   53.4134    5.9327 C   0  0  0  0  0  0  0  0  0  0  0  0
    0.7553   53.5090    7.3551 N   0  0  0  0  0  0  0  0  0  0  0  0
  1  2  2  0
  3  2  1  1
  2  4  1  0
  4  5  1  0
  4  6  2  0
  6  7  1  0
  6  8  1  0
  1  9  1  0
  8  9  2  0
  8 10  1  0
 10 11  1  6
 11 12  1  0
 12 13  2  0
 12 14  1  1
 12 15  1  0
 16 17  2  0
 16 18  1  0
 16 19  1  0
  7 20  1  1
 19 20  1  6
M  END
$$$$
