6ZK5_IMH_B_401
     RDKit          3D

 33 35  0  0  0  0  0  0  0  0999 V2000
   -1.8314    0.1188  -15.2609 O   0  0  0  0  0  0  0  0  0  0  0  0
   -1.9630   -1.2762  -15.2128 C   0  0  1  0  0  0  0  0  0  0  0  0
   -2.1594   -1.7552  -13.7598 C   0  0  1  0  0  0  0  0  0  0  0  0
   -0.8726   -2.0150  -13.0821 N   0  0  0  0  0  0  0  0  0  0  0  0
   -2.9586   -0.7367  -12.9158 C   0  0  1  0  0  0  0  0  0  0  0  0
   -4.0325   -1.3576  -12.2469 O   0  0  0  0  0  0  0  0  0  0  0  0
   -1.9286   -0.1671  -11.9477 C   0  0  1  0  0  0  0  0  0  0  0  0
   -2.4836    0.2504  -10.7217 O   0  0  0  0  0  0  0  0  0  0  0  0
   -0.9031   -1.2919  -11.8036 C   0  0  2  0  0  0  0  0  0  0  0  0
    0.4585   -0.7804  -11.3934 C   0  0  0  0  0  0  0  0  0  0  0  0
    1.1795   -1.1575  -10.2609 C   0  0  0  0  0  0  0  0  0  0  0  0
    2.3547   -0.4857  -10.1938 N   0  0  0  0  0  0  0  0  0  0  0  0
    2.3806    0.3156  -11.2741 C   0  0  0  0  0  0  0  0  0  0  0  0
    3.3595    1.2201  -11.6831 C   0  0  0  0  0  0  0  0  0  0  0  0
    4.5361    1.4210  -10.9650 O   0  0  0  0  0  0  0  0  0  0  0  0
    3.1333    1.9226  -12.8319 N   0  0  0  0  0  0  0  0  0  0  0  0
    1.9863    1.7509  -13.5627 C   0  0  0  0  0  0  0  0  0  0  0  0
    1.0314    0.8633  -13.1552 N   0  0  0  0  0  0  0  0  0  0  0  0
    1.2506    0.1623  -12.0167 C   0  0  0  0  0  0  0  0  0  0  0  0
   -1.8040    0.3598  -16.2231 H   0  0  0  0  0  0  0  0  0  0  0  0
   -2.8378   -1.5917  -15.8247 H   0  0  0  0  0  0  0  0  0  0  0  0
   -1.0517   -1.7553  -15.6362 H   0  0  0  0  0  0  0  0  0  0  0  0
   -2.7177   -2.7161  -13.8123 H   0  0  0  0  0  0  0  0  0  0  0  0
   -0.0708   -1.6883  -13.6704 H   0  0  0  0  0  0  0  0  0  0  0  0
   -3.3772    0.0841  -13.5397 H   0  0  0  0  0  0  0  0  0  0  0  0
   -3.7091   -1.6672  -11.3602 H   0  0  0  0  0  0  0  0  0  0  0  0
   -1.4560    0.7153  -12.4324 H   0  0  0  0  0  0  0  0  0  0  0  0
   -3.1306   -0.4354  -10.4139 H   0  0  0  0  0  0  0  0  0  0  0  0
   -1.2488   -2.0125  -11.0295 H   0  0  0  0  0  0  0  0  0  0  0  0
    0.8585   -1.8824   -9.5240 H   0  0  0  0  0  0  0  0  0  0  0  0
    3.0793   -0.5786   -9.4483 H   0  0  0  0  0  0  0  0  0  0  0  0
    4.7756    0.8590  -10.1578 H   0  0  0  0  0  0  0  0  0  0  0  0
    1.8360    2.3224  -14.4682 H   0  0  0  0  0  0  0  0  0  0  0  0
  1  2  1  0
  3  2  1  0
  3  4  1  0
  3  5  1  0
  5  6  1  0
  5  7  1  0
  7  8  1  0
  4  9  1  0
  7  9  1  0
  9 10  1  0
 10 11  2  0
 11 12  1  0
 12 13  1  0
 13 14  2  0
 14 15  1  0
 14 16  1  0
 16 17  2  0
 17 18  1  0
 10 19  1  0
 13 19  1  0
 18 19  2  0
  1 20  1  0
  2 21  1  6
  2 22  1  0
  3 23  1  6
  4 24  1  0
  5 25  1  6
  6 26  1  0
  7 27  1  6
  8 28  1  0
  9 29  1  1
 11 30  1  0
 12 31  1  0
 15 32  1  0
 17 33  1  0
M  END
