5SD5_HWI_A_202
     RDKit          3D

 56 58  0  0  0  0  0  0  0  0999 V2000
    1.7207    0.3672    2.9028 C   0  0  0  0  0  0  0  0  0  0  0  0
    3.2435   -1.0620    0.4118 C   0  0  0  0  0  0  0  0  0  0  0  0
   -1.1927   -0.5808    2.2097 C   0  0  0  0  0  0  0  0  0  0  0  0
   -1.6010   -1.9148    4.1887 C   0  0  0  0  0  0  0  0  0  0  0  0
   -0.2526   -2.2717    4.2257 C   0  0  0  0  0  0  0  0  0  0  0  0
    0.6367   -1.7940    3.2540 C   0  0  0  0  0  0  0  0  0  0  0  0
    2.8143   -3.3640    3.7013 C   0  0  0  0  0  0  0  0  0  0  0  0
    3.7156   -0.6911    1.8269 C   0  0  0  0  0  0  0  0  0  0  0  0
    1.7210   -1.1617    0.2887 C   0  0  0  0  0  0  0  0  0  0  0  0
    0.1739   -0.9250    2.2473 C   0  0  0  0  0  0  0  0  0  0  0  0
   -2.0831   -1.0844    3.1693 C   0  0  0  0  0  0  0  0  0  0  0  0
   -3.5258   -0.6733    3.1490 C   0  0  0  0  0  0  0  0  0  0  0  0
    1.9543   -0.7708    0.2167 C   0  0  0  0  0  0  0  0  0  0  0  0
    0.9142   -1.3473    1.1743 C   0  0  0  0  0  0  0  0  0  0  0  0
    0.6926   -0.4265    2.3451 C   0  0  0  0  0  0  0  0  0  0  0  0
   -0.8020    0.3238    4.0284 C   0  0  0  0  0  0  0  0  0  0  0  0
    1.4386    1.0833    4.0789 C   0  0  0  0  0  0  0  0  0  0  0  0
    4.1521   -2.7550    3.4064 C   0  0  2  0  0  0  0  0  0  0  0  0
    3.3190   -1.5713    3.0131 C   0  0  0  0  0  0  0  0  0  0  0  0
    4.8924   -3.3962    2.2632 C   0  0  0  0  0  0  0  0  0  0  0  0
   -0.5391   -0.4168    2.9224 N   0  0  0  0  0  0  0  0  0  0  0  0
   -2.1086    0.3164    4.5985 N   0  0  0  0  0  0  0  0  0  0  0  0
    0.1859    1.0547    4.6031 N   0  0  0  0  0  0  0  0  0  0  0  0
    2.4467    1.8678    4.7223 N   0  0  0  0  0  0  0  0  0  0  0  0
    2.0126   -2.1875    3.3107 N   0  0  0  0  0  0  0  0  0  0  0  0
    3.0071    0.4356    2.3495 O   0  0  0  0  0  0  0  0  0  0  0  0
    1.0931   -0.4061    1.3221 O   0  0  0  0  0  0  0  0  0  0  0  0
    4.2850   -4.1712    1.4764 O   0  0  0  0  0  0  0  0  0  0  0  0
    6.2248   -3.0727    2.0211 O   0  0  0  0  0  0  0  0  0  0  0  0
    3.6257   -0.3133   -0.3148 H   0  0  0  0  0  0  0  0  0  0  0  0
    3.6796   -2.0476    0.1383 H   0  0  0  0  0  0  0  0  0  0  0  0
   -1.5731    0.0788    1.4414 H   0  0  0  0  0  0  0  0  0  0  0  0
   -2.2701   -2.2910    4.9531 H   0  0  0  0  0  0  0  0  0  0  0  0
    0.1002   -2.9260    5.0128 H   0  0  0  0  0  0  0  0  0  0  0  0
    2.5641   -4.2414    3.0686 H   0  0  0  0  0  0  0  0  0  0  0  0
    2.6820   -3.5868    4.7836 H   0  0  0  0  0  0  0  0  0  0  0  0
    3.6480   -1.5620    2.5032 H   0  0  0  0  0  0  0  0  0  0  0  0
    4.7890   -0.4129    1.7666 H   0  0  0  0  0  0  0  0  0  0  0  0
    1.4001   -0.7935   -0.7043 H   0  0  0  0  0  0  0  0  0  0  0  0
    1.4183   -2.2269    0.3798 H   0  0  0  0  0  0  0  0  0  0  0  0
   -3.6480    0.2713    3.7186 H   0  0  0  0  0  0  0  0  0  0  0  0
   -3.8728   -0.5153    2.1056 H   0  0  0  0  0  0  0  0  0  0  0  0
   -4.1646   -1.4579    3.6072 H   0  0  0  0  0  0  0  0  0  0  0  0
    1.5609    0.1459   -0.2706 H   0  0  0  0  0  0  0  0  0  0  0  0
    2.8833   -0.5118    0.7599 H   0  0  0  0  0  0  0  0  0  0  0  0
    2.1949   -1.5168   -0.5700 H   0  0  0  0  0  0  0  0  0  0  0  0
    1.2170   -2.3639    1.4986 H   0  0  0  0  0  0  0  0  0  0  0  0
   -0.0458   -1.4652    0.6264 H   0  0  0  0  0  0  0  0  0  0  0  0
    4.7724   -2.5827    4.3124 H   0  0  0  0  0  0  0  0  0  0  0  0
    3.3835   -1.2997    1.9349 H   0  0  0  0  0  0  0  0  0  0  0  0
    3.4985   -0.6931    3.6721 H   0  0  0  0  0  0  0  0  0  0  0  0
   -2.8717   -0.2493    4.1645 H   0  0  0  0  0  0  0  0  0  0  0  0
   -2.3139    0.8773    5.4555 H   0  0  0  0  0  0  0  0  0  0  0  0
    2.2166    2.4084    5.5857 H   0  0  0  0  0  0  0  0  0  0  0  0
    3.4243    1.9070    4.3588 H   0  0  0  0  0  0  0  0  0  0  0  0
    6.7254   -3.4786    1.2403 H   0  0  0  0  0  0  0  0  0  0  0  0
  4  5  4  0
  5  6  4  0
  2  8  1  0
  2  9  1  0
  3 10  4  0
  6 10  4  0
  3 11  4  0
  4 11  4  0
 11 12  1  0
 13 14  1  0
 14 15  1  0
  1 15  4  0
  1 17  4  0
  7 18  1  0
 18 19  1  0
 18 20  1  0
 15 21  4  0
 16 21  4  0
 16 22  1  0
 16 23  4  0
 17 23  4  0
 17 24  1  0
  6 25  1  0
  7 25  1  0
 19 25  1  0
  1 26  1  0
  8 26  1  0
  9 27  1  0
 10 27  1  0
 20 28  2  0
 20 29  1  0
  2 30  1  0
  2 31  1  0
  3 32  1  0
  4 33  1  0
  5 34  1  0
  7 35  1  0
  7 36  1  0
  8 37  1  0
  8 38  1  0
  9 39  1  0
  9 40  1  0
 12 41  1  0
 12 42  1  0
 12 43  1  0
 13 44  1  0
 13 45  1  0
 13 46  1  0
 14 47  1  0
 14 48  1  0
 18 49  1  6
 19 50  1  0
 19 51  1  0
 22 52  1  0
 22 53  1  0
 24 54  1  0
 24 55  1  0
 29 56  1  0
M  END
