7OPG_06N_B_501
     RDKit          3D

 19 21  0  0  0  0  0  0  0  0999 V2000
   37.3163   24.4581   70.5590 C   0  0  0  0  0  0  0  0  0  0  0  0
   36.5657   24.0869   71.6492 C   0  0  0  0  0  0  0  0  0  0  0  0
   38.0213   23.5123   69.6985 C   0  0  0  0  0  0  0  0  0  0  0  0
   39.4922   22.8709   67.9091 C   0  0  0  0  0  0  0  0  0  0  0  0
   38.8491   23.8493   68.6801 C   0  0  0  0  0  0  0  0  0  0  0  0
   39.2614   21.5322   68.2138 C   0  0  0  0  0  0  0  0  0  0  0  0
   38.4203   21.1593   69.2484 C   0  0  0  0  0  0  0  0  0  0  0  0
   37.8211   22.1700   69.9650 C   0  0  0  0  0  0  0  0  0  0  0  0
   36.0791   25.2405   72.1946 N   0  0  0  0  0  0  0  0  0  0  0  0
   36.5416   26.2456   71.4325 C   0  0  0  0  0  0  0  0  0  0  0  0
   37.3016   25.8239   70.4209 N   0  0  0  0  0  0  0  0  0  0  0  0
   36.5577   28.0375   71.2146 S   0  0  0  0  0  0  0  0  0  0  0  0
   37.6524   27.9377   69.7014 C   0  0  0  0  0  0  0  0  0  0  0  0
   37.7978   26.7033   69.6335 N   0  0  0  0  0  0  0  0  0  0  0  0
   38.0952   29.0326   68.9830 N   0  0  0  0  0  0  0  0  0  0  0  0
   39.0329   29.0700   67.9015 C   0  0  0  0  0  0  0  0  0  0  0  0
   40.4703   28.9760   68.2341 C   0  0  0  0  0  0  0  0  0  0  0  0
   41.3210   28.1293   67.3339 C   0  0  0  0  0  0  0  0  0  0  0  0
   39.9026   20.5699   67.4456 O   0  0  0  0  0  0  0  0  0  0  0  0
  1  2  2  0
  1  3  1  0
  4  5  2  0
  3  5  1  0
  4  6  1  0
  6  7  2  0
  7  8  1  0
  3  8  2  0
  2  9  1  0
  9 10  2  0
  1 11  1  0
 10 11  1  0
 10 12  1  0
 12 13  1  0
 11 14  1  0
 13 14  2  0
 13 15  1  0
 16 15  1  1
 16 17  1  0
 17 18  1  6
  6 19  1  0
M  END
$$$$
