@<TRIPOS>MOLECULE
1YQY_915_A_782
 42 43 0 0 0
SMALL
GASTEIGER

@<TRIPOS>ATOM
      1 C          -0.7658    1.6312    1.5430 C.ar    1  UNL1        0.1057
      2 C           0.2609    1.4061    2.4699 C.ar    1  UNL1       -0.0297
      3 C           1.3291    2.3112    2.5821 C.ar    1  UNL1       -0.0134
      4 C           1.3555    3.4520    1.7629 C.ar    1  UNL1        0.1264
      5 C           0.3290    3.6783    0.8417 C.ar    1  UNL1       -0.0243
      6 C          -0.7288    2.7728    0.7308 C.ar    1  UNL1       -0.0326
      7 F           2.3752    4.3431    1.8558 F       1  UNL1       -0.2052
      8 C           2.4315    2.0705    3.5724 C.3     1  UNL1       -0.0369
      9 S          -2.0793    0.4647    1.3990 S.O2    1  UNL1        0.0591
     10 N          -1.4672   -1.0915    0.9101 N.3     1  UNL1       -0.1777
     11 C          -1.0745   -1.1171   -0.5109 C.3     1  UNL1        0.1096
     12 C           0.1938   -0.3222   -0.7503 C.2     1  UNL1        0.2543
     13 N           1.4202   -0.6665   -0.0962 N.am    1  UNL1       -0.1961
     14 O           2.5479    0.0445   -0.3357 O.3     1  UNL1       -0.2951
     15 O           0.1703    0.6484   -1.5544 O.2     1  UNL1       -0.2719
     16 O          -3.1023    0.9475    0.4077 O.2     1  UNL1       -0.1530
     17 O          -2.7454    0.3279    2.7389 O.2     1  UNL1       -0.1530
     18 C          -0.9107   -2.5859   -0.9851 C.3     1  UNL1       -0.0113
     19 C          -0.4810   -2.6685   -2.4704 C.3     1  UNL1       -0.0246
     20 C          -0.8031   -4.0430   -3.0847 C.3     1  UNL1        0.0480
     21 O          -0.8857   -5.0352   -2.0820 O.3     1  UNL1       -0.3797
     22 C          -2.0544   -4.8405   -1.3016 C.3     1  UNL1        0.0480
     23 C          -2.2095   -3.3913   -0.7827 C.3     1  UNL1       -0.0246
     24 H           0.2300    0.5231    3.0964 H       1  UNL1        0.0640
     25 H           0.3534    4.5570    0.2101 H       1  UNL1        0.0647
     26 H          -1.5112    2.9613    0.0078 H       1  UNL1        0.0638
     27 H           2.4248    2.8746    4.3387 H       1  UNL1        0.0278
     28 H           2.3124    1.0922    4.0858 H       1  UNL1        0.0278
     29 H           3.4119    2.0716    3.0502 H       1  UNL1        0.0278
     30 H          -0.6559   -1.3349    1.5225 H       1  UNL1        0.1489
     31 H          -1.8916   -0.6697   -1.1209 H       1  UNL1        0.0576
     32 H           1.4687   -1.4877    0.5465 H       1  UNL1        0.1822
     33 H           2.5562    0.7502    0.3600 H       1  UNL1        0.2414
     34 H          -0.1204   -3.0716   -0.3688 H       1  UNL1        0.0322
     35 H          -0.9953   -1.8852   -3.0698 H       1  UNL1        0.0291
     36 H           0.6135   -2.4831   -2.5400 H       1  UNL1        0.0291
     37 H           0.0029   -4.3223   -3.7960 H       1  UNL1        0.0560
     38 H          -1.7471   -3.9947   -3.6762 H       1  UNL1        0.0560
     39 H          -1.9952   -5.5254   -0.4292 H       1  UNL1        0.0560
     40 H          -2.9552   -5.1405   -1.8822 H       1  UNL1        0.0560
     41 H          -2.4872   -3.4161    0.2935 H       1  UNL1        0.0291
     42 H          -3.0389   -2.8950   -1.3342 H       1  UNL1        0.0291
@<TRIPOS>BOND
     1     1     2   ar
     2     2     3   ar
     3     3     4   ar
     4     4     5   ar
     5     1     6   ar
     6     5     6   ar
     7     4     7    1
     8     3     8    1
     9     1     9    1
    10     9    10    1
    11    11    10    1
    12    11    12    1
    13    12    13   am
    14    13    14    1
    15    12    15    2
    16     9    16    2
    17     9    17    2
    18    11    18    1
    19    18    19    1
    20    19    20    1
    21    20    21    1
    22    21    22    1
    23    18    23    1
    24    22    23    1
    25     2    24    1
    26     5    25    1
    27     6    26    1
    28     8    27    1
    29     8    28    1
    30     8    29    1
    31    10    30    1
    32    11    31    1
    33    13    32    1
    34    14    33    1
    35    18    34    1
    36    19    35    1
    37    19    36    1
    38    20    37    1
    39    20    38    1
    40    22    39    1
    41    22    40    1
    42    23    41    1
    43    23    42    1
