
     RDKit          3D

  7  6  0  0  0  0  0  0  0  0999 V2000
   26.8459   31.9671   -7.3468 C   0  0  0  0  0  0  0  0  0  0  0  0
   27.1036   33.4186   -6.9980 C   0  0  0  0  0  0  0  0  0  0  0  0
   26.6619   31.7782   -9.1467 S   0  0  0  0  0  0  0  0  0  0  0  0
   26.1550   33.9089   -5.5687 S   0  0  0  0  0  6  0  0  0  0  0  0
   26.4195   33.0136   -4.4676 O   0  0  0  0  0  0  0  0  0  0  0  0
   26.2051   35.3462   -5.4278 O   0  0  0  0  0  0  0  0  0  0  0  0
   24.6793   33.5845   -6.1372 O   0  0  0  0  0  0  0  0  0  0  0  0
  1  2  1  0
  1  3  1  0
  2  4  1  0
  4  5  2  0
  4  6  2  0
  4  7  1  0
M  END
