7M31_TDR_D_1107
     RDKit          3D

  9  9  0  0  0  0  0  0  0  0999 V2000
   30.8804   61.2194   55.8913 N   0  0  0  0  0  0  0  0  0  0  0  0
   30.6809   59.9988   55.1327 C   0  0  0  0  0  0  0  0  0  0  0  0
   29.6578   59.4052   55.2131 O   0  0  0  0  0  0  0  0  0  0  0  0
   31.7190   59.5116   54.2994 N   0  0  0  0  0  0  0  0  0  0  0  0
   32.9445   60.2085   54.1904 C   0  0  0  0  0  0  0  0  0  0  0  0
   33.7953   59.7864   53.4823 O   0  0  0  0  0  0  0  0  0  0  0  0
   33.1484   61.4944   54.9790 C   0  0  0  0  0  0  0  0  0  0  0  0
   34.4668   62.2559   54.8808 C   0  0  0  0  0  0  0  0  0  0  0  0
   32.1673   61.9501   55.7817 C   0  0  0  0  0  0  0  0  0  0  0  0
  1  2  1  0
  2  3  2  0
  2  4  1  0
  4  5  1  0
  5  6  2  0
  5  7  1  0
  7  8  1  0
  1  9  1  0
  7  9  2  0
M  END
