
     RDKit          3D

 41 45  0  0  0  0  0  0  0  0999 V2000
  -19.8162  -12.5166    2.8828 F   0  0  0  0  0  0  0  0  0  0  0  0
  -20.5647  -12.7863    3.9916 C   0  0  0  0  0  0  0  0  0  0  0  0
  -21.6324  -13.4974    3.5175 F   0  0  0  0  0  0  0  0  0  0  0  0
  -19.8655  -13.6645    4.7545 F   0  0  0  0  0  0  0  0  0  0  0  0
  -20.9992  -11.5333    4.7298 C   0  0  0  0  0  0  0  0  0  0  0  0
  -20.8348  -11.4897    6.1293 C   0  0  0  0  0  0  0  0  0  0  0  0
  -21.2872  -10.4000    6.8754 C   0  0  0  0  0  0  0  0  0  0  0  0
  -21.9004   -9.3309    6.2324 C   0  0  0  0  0  0  0  0  0  0  0  0
  -22.4280   -7.9740    7.1489 Cl  0  0  0  0  0  0  0  0  0  0  0  0
  -22.0673   -9.3391    4.8488 C   0  0  0  0  0  0  0  0  0  0  0  0
  -21.6253  -10.4354    4.0936 C   0  0  0  0  0  0  0  0  0  0  0  0
  -21.7457  -10.3899    2.6828 N   0  0  0  0  0  0  0  0  0  0  0  0
  -22.7480  -11.0749    2.0899 N   0  0  0  0  0  0  0  0  0  0  0  0
  -22.4783  -10.9362    0.7927 C   0  0  0  0  0  0  0  0  0  0  0  0
  -23.2767  -11.5841   -0.2670 C   0  0  0  0  0  0  0  0  0  0  0  0
  -21.4258  -10.1165    0.5180 N   0  0  0  0  0  0  0  0  0  0  0  0
  -20.9940   -9.7418    1.7111 C   0  0  0  0  0  0  0  0  0  0  0  0
  -20.0097   -8.6280    1.9246 C   0  0  1  0  0  0  0  0  0  0  0  0
  -18.5472   -9.1337    1.9919 C   0  0  2  0  0  0  0  0  0  0  0  0
  -18.3493   -9.9065    3.1892 O   0  0  0  0  0  0  0  0  0  0  0  0
  -20.2540   -7.6372    0.9343 O   0  0  0  0  0  0  0  0  0  0  0  0
  -19.3798   -6.4955    1.0448 C   0  0  2  0  0  0  0  0  0  0  0  0
  -19.7926   -5.5032   -0.0470 C   0  0  0  0  0  0  0  0  0  0  0  0
  -21.1813   -5.1990    0.0987 O   0  0  0  0  0  0  0  0  0  0  0  0
  -17.9148   -6.9328    0.8990 C   0  0  2  0  0  0  0  0  0  0  0  0
  -17.7551   -7.5335   -0.3928 O   0  0  0  0  0  0  0  0  0  0  0  0
  -17.5912   -7.9306    2.0259 C   0  0  2  0  0  0  0  0  0  0  0  0
  -16.1970   -8.3546    2.0117 N   0  0  0  0  0  0  0  0  0  0  0  0
  -15.2988   -8.2438    0.9888 C   0  0  0  0  0  0  0  0  0  0  0  0
  -15.6489   -8.9758    3.0729 N   0  0  0  0  0  0  0  0  0  0  0  0
  -14.3978   -9.2751    2.7568 N   0  0  0  0  0  0  0  0  0  0  0  0
  -14.1533   -8.8265    1.4832 C   0  0  0  0  0  0  0  0  0  0  0  0
  -12.8767   -8.9771    0.8090 C   0  0  0  0  0  0  0  0  0  0  0  0
  -12.7392   -8.7802   -0.5711 C   0  0  0  0  0  0  0  0  0  0  0  0
  -11.4940   -8.9348   -1.1839 C   0  0  0  0  0  0  0  0  0  0  0  0
  -11.4077   -8.7318   -2.5075 F   0  0  0  0  0  0  0  0  0  0  0  0
  -10.3685   -9.2865   -0.4465 C   0  0  0  0  0  0  0  0  0  0  0  0
   -8.8411   -9.4767   -1.2151 Cl  0  0  0  0  0  0  0  0  0  0  0  0
  -10.5027   -9.4796    0.9233 C   0  0  0  0  0  0  0  0  0  0  0  0
   -9.4429   -9.8181    1.6719 F   0  0  0  0  0  0  0  0  0  0  0  0
  -11.7393   -9.3268    1.5513 C   0  0  0  0  0  0  0  0  0  0  0  0
  1  2  1  0
  2  3  1  0
  2  4  1  0
  2  5  1  0
  5  6  4  0
  6  7  4  0
  7  8  4  0
  8  9  1  0
  8 10  4  0
 10 11  4  0
  5 11  4  0
 11 12  1  0
 12 13  4  0
 13 14  4  0
 14 15  1  0
 14 16  4  0
 16 17  4  0
 12 17  4  0
 18 17  1  6
 18 19  1  0
 19 20  1  1
 18 21  1  0
 21 22  1  0
 22 23  1  6
 23 24  1  0
 22 25  1  0
 25 26  1  6
 25 27  1  0
 19 27  1  0
 27 28  1  6
 28 29  4  0
 28 30  4  0
 30 31  4  0
 29 32  4  0
 31 32  4  0
 32 33  1  0
 33 34  4  0
 34 35  4  0
 35 36  1  0
 35 37  4  0
 37 38  1  0
 37 39  4  0
 39 40  1  0
 39 41  4  0
 33 41  4  0
M  END
