
     RDKit          3D

 29 30  0  0  0  0  0  0  0  0999 V2000
  -25.0243  -60.3637   -8.6144 P   0  0  2  0  0  5  0  0  0  0  0  0
  -24.1889  -60.8367   -9.7601 O   0  0  0  0  0  0  0  0  0  0  0  0
  -25.0200  -61.3720   -7.3704 O   0  0  0  0  0  0  0  0  0  0  0  0
  -26.5605  -60.2175   -8.9777 O   0  0  0  0  0  0  0  0  0  0  0  0
  -24.5672  -58.9473   -8.0073 O   0  0  0  0  0  0  0  0  0  0  0  0
  -27.2846  -61.1019  -10.0763 P   0  0  2  0  0  5  0  0  0  0  0  0
  -26.6124  -60.5890  -11.4425 O   0  0  0  0  0  0  0  0  0  0  0  0
  -28.7749  -60.9918  -10.1260 O   0  0  0  0  0  0  0  0  0  0  0  0
  -26.6982  -62.5702   -9.9181 O   0  0  0  0  0  0  0  0  0  0  0  0
  -27.5006  -63.6220   -9.0467 P   0  0  1  0  0  5  0  0  0  0  0  0
  -28.7894  -63.9541   -9.9244 O   0  0  0  0  0  0  0  0  0  0  0  0
  -26.7204  -64.8173   -8.6193 O   0  0  0  0  0  0  0  0  0  0  0  0
  -28.1585  -62.7490   -7.8884 O   0  0  0  0  0  0  0  0  0  0  0  0
  -24.9361  -58.5120   -6.7109 C   0  0  0  0  0  0  0  0  0  0  0  0
  -26.3167  -57.8500   -6.6999 C   0  0  1  0  0  0  0  0  0  0  0  0
  -26.3960  -56.9276   -5.5860 O   0  0  0  0  0  0  0  0  0  0  0  0
  -26.5693  -55.6045   -6.1089 C   0  0  2  0  0  0  0  0  0  0  0  0
  -26.0844  -55.6385   -7.5628 C   0  0  2  0  0  0  0  0  0  0  0  0
  -26.6733  -54.6384   -8.3945 O   0  0  0  0  0  0  0  0  0  0  0  0
  -26.5528  -57.0266   -7.9705 C   0  0  2  0  0  0  0  0  0  0  0  0
  -27.9529  -56.9772   -8.2764 O   0  0  0  0  0  0  0  0  0  0  0  0
  -25.8830  -54.6449   -5.2419 N   0  0  0  0  0  0  0  0  0  0  0  0
  -24.6920  -54.0906   -5.6755 C   0  0  0  0  0  0  0  0  0  0  0  0
  -26.4819  -54.2290   -4.0601 C   0  0  0  0  0  0  0  0  0  0  0  0
  -27.5628  -54.6493   -3.6420 O   0  0  0  0  0  0  0  0  0  0  0  0
  -25.8020  -53.2756   -3.3482 N   0  0  0  0  0  0  0  0  0  0  0  0
  -24.6555  -52.6494   -3.7388 C   0  0  0  0  0  0  0  0  0  0  0  0
  -24.1396  -51.7344   -3.1083 O   0  0  0  0  0  0  0  0  0  0  0  0
  -24.0576  -53.1397   -4.9879 C   0  0  0  0  0  0  0  0  0  0  0  0
  1  2  2  0
  1  3  1  1
  1  4  1  0
  1  5  1  0
  6  4  1  0
  6  7  1  6
  6  8  2  0
  6  9  1  0
  9 10  1  0
 10 11  1  0
 10 12  2  0
 10 13  1  0
  5 14  1  0
 15 14  1  6
 15 16  1  0
 16 17  1  0
 17 18  1  0
 18 19  1  6
 15 20  1  0
 18 20  1  0
 20 21  1  1
 17 22  1  1
 22 23  4  0
 22 24  4  0
 24 25  2  0
 24 26  4  0
 26 27  4  0
 27 28  2  0
 23 29  4  0
 27 29  4  0
M  END
