
     RDKit          3D

 21 22  0  0  0  0  0  0  0  0999 V2000
   -2.0393    2.2029   11.2387 C   0  0  0  0  0  0  0  0  0  0  0  0
   -0.7493    2.1855   10.7100 C   0  0  0  0  0  0  0  0  0  0  0  0
    0.7980    2.5722    8.7807 C   0  0  0  0  0  0  0  0  0  0  0  0
    2.8534    5.1992    6.4192 O   0  0  0  0  0  0  0  0  0  0  0  0
    2.9303    4.2296    7.1693 C   0  0  0  0  0  0  0  0  0  0  0  0
    3.5920    4.2509    8.3806 N   0  0  0  0  0  0  0  0  0  0  0  0
    4.6227    3.2887    8.6723 C   0  0  0  0  0  0  0  0  0  0  0  0
    2.2305    2.9067    6.8628 C   0  0  0  0  0  0  0  0  0  0  0  0
    0.8840    2.9295    7.4346 N   0  0  0  0  0  0  0  0  0  0  0  0
    1.7777    2.2942    9.4724 O   0  0  0  0  0  0  0  0  0  0  0  0
   -0.5443    2.5700    9.3796 C   0  0  0  0  0  0  0  0  0  0  0  0
   -3.1106    2.6025   10.4399 C   0  0  0  0  0  0  0  0  0  0  0  0
   -2.8909    2.9857    9.1137 C   0  0  0  0  0  0  0  0  0  0  0  0
   -1.6033    2.9722    8.5739 C   0  0  0  0  0  0  0  0  0  0  0  0
   -1.4224    3.3661    7.2464 N   0  0  0  0  0  0  0  0  0  0  0  0
   -0.2354    3.3361    6.7287 C   0  0  0  0  0  0  0  0  0  0  0  0
   -0.0698    3.7610    5.2728 C   0  0  0  0  0  0  0  0  0  0  0  0
   -1.2345    4.5841    4.7269 C   0  0  0  0  0  0  0  0  0  0  0  0
   -0.9757    6.0671    4.6941 C   0  0  0  0  0  0  0  0  0  0  0  0
   -1.9794    6.8151    5.1896 O   0  0  0  0  0  0  0  0  0  0  0  0
   -0.0013    6.6082    4.1953 O   0  0  0  0  0  0  0  0  0  0  0  0
  1  2  4  0
  4  5  2  0
  5  6  1  0
  6  7  1  0
  5  8  1  0
  3  9  4  0
  8  9  1  0
  3 10  2  0
  2 11  4  0
  3 11  4  0
  1 12  4  0
 12 13  4  0
 13 14  4  0
 11 14  4  0
 14 15  4  0
 15 16  4  0
  9 16  4  0
 16 17  1  0
 17 18  1  0
 18 19  1  0
 19 20  1  0
 19 21  2  0
M  END
