7RUI_7QZ_A_201
     RDKit          3D

 51 56  0  0  0  0  0  0  0  0999 V2000
    9.5586   11.1130    5.4290 C   0  0  0  0  0  0  0  0  0  0  0  0
   12.6864   14.5695    4.1151 C   0  0  0  0  0  0  0  0  0  0  0  0
   12.9417   15.1381    5.3443 C   0  0  0  0  0  0  0  0  0  0  0  0
   14.1681   15.7663    5.6168 C   0  0  0  0  0  0  0  0  0  0  0  0
   15.0958   15.7847    4.6003 C   0  0  0  0  0  0  0  0  0  0  0  0
   14.8761   15.2255    3.3559 C   0  0  0  0  0  0  0  0  0  0  0  0
   13.6666   14.6263    3.1408 C   0  0  0  0  0  0  0  0  0  0  0  0
   16.8620   16.0629    3.3217 C   0  0  0  0  0  0  0  0  0  0  0  0
   16.3475   16.3078    4.5653 C   0  0  0  0  0  0  0  0  0  0  0  0
   16.1969   14.9884    1.2234 C   0  0  1  0  0  0  0  0  0  0  0  0
   16.1770   13.4441    1.2272 C   0  0  0  0  0  0  0  0  0  0  0  0
   15.0931   15.3682    0.3009 C   0  0  0  0  0  0  0  0  0  0  0  0
   13.7763   15.0914   -1.6391 C   0  0  0  0  0  0  0  0  0  0  0  0
    9.0305   12.5872    3.5519 C   0  0  0  0  0  0  0  0  0  0  0  0
    9.3712   13.6437    2.7163 C   0  0  0  0  0  0  0  0  0  0  0  0
   10.5582   14.3370    2.8515 C   0  0  0  0  0  0  0  0  0  0  0  0
   11.3991   13.9256    3.8673 C   0  0  0  0  0  0  0  0  0  0  0  0
   11.0527   12.8799    4.6880 C   0  0  0  0  0  0  0  0  0  0  0  0
    9.8864   12.2178    4.5358 N   0  0  0  0  0  0  0  0  0  0  0  0
   15.9480   15.3872    2.5617 N   0  0  0  0  0  0  0  0  0  0  0  0
   14.7984   14.7062   -0.8278 N   0  0  0  0  0  0  0  0  0  0  0  0
   13.0027   16.2014   -1.3060 C   0  0  0  0  0  0  0  0  0  0  0  0
   13.2830   16.9028   -0.1493 C   0  0  0  0  0  0  0  0  0  0  0  0
   14.3184   16.4814    0.6366 C   0  0  0  0  0  0  0  0  0  0  0  0
   17.4907   15.3376    0.6433 C   0  0  0  0  0  0  0  0  0  0  0  0
   17.9418   16.6474    0.6557 C   0  0  0  0  0  0  0  0  0  0  0  0
   19.1787   16.9067    0.1006 C   0  0  0  0  0  0  0  0  0  0  0  0
   19.9406   15.8945   -0.4486 C   0  0  0  0  0  0  0  0  0  0  0  0
   19.4567   14.6090   -0.4407 C   0  0  0  0  0  0  0  0  0  0  0  0
   18.2638   14.3516    0.0934 N   0  0  0  0  0  0  0  0  0  0  0  0
   14.4633   16.3182    6.8751 N   0  0  0  0  0  0  0  0  0  0  0  0
   13.8082   15.8882    8.3742 S   0  0  2  0  0  6  0  0  0  0  0  0
   13.5175   14.1680    8.5763 C   0  0  0  0  0  0  0  0  0  0  0  0
   14.4643   13.4829    9.5044 C   0  0  1  0  0  0  0  0  0  0  0  0
   14.4221   14.0350   10.7650 F   0  0  0  0  0  0  0  0  0  0  0  0
   14.0468   12.1312    9.6568 F   0  0  0  0  0  0  0  0  0  0  0  0
   15.7255   13.4877    8.9753 F   0  0  0  0  0  0  0  0  0  0  0  0
   12.4716   16.5980    8.6018 O   0  0  0  0  0  0  0  0  0  0  0  0
   14.7187   16.3627    9.5074 O   0  0  0  0  0  0  0  0  0  0  0  0
    8.4444   14.0019    1.6891 N   0  0  0  0  0  0  0  0  0  0  0  0
    9.0210   14.4701    0.4645 C   0  0  0  0  0  0  0  0  0  0  0  0
    8.2370   14.7840   -0.6758 N   0  0  0  0  0  0  0  0  0  0  0  0
    8.9068   14.7869   -1.9350 C   0  0  0  0  0  0  0  0  0  0  0  0
   10.2264   14.4623   -2.0980 C   0  0  0  0  0  0  0  0  0  0  0  0
   10.7820   14.4962   -3.3771 C   0  0  0  0  0  0  0  0  0  0  0  0
   10.0301   14.8503   -4.4837 C   0  0  0  0  0  0  0  0  0  0  0  0
    8.6815   15.1817   -4.3149 C   0  0  0  0  0  0  0  0  0  0  0  0
    8.1461   15.1424   -3.0351 C   0  0  0  0  0  0  0  0  0  0  0  0
    6.8210   15.4694   -2.8813 F   0  0  0  0  0  0  0  0  0  0  0  0
   10.2737   14.5895    0.4543 O   0  0  0  0  0  0  0  0  0  0  0  0
    7.9270   11.9637    3.4048 O   0  0  0  0  0  0  0  0  0  0  0  0
  2  3  2  0
  3  4  1  0
  4  5  2  0
  5  6  1  0
  6  7  2  0
  2  7  1  0
  8  9  2  0
  5  9  1  0
 11 10  1  6
 10 12  1  0
 14 15  1  0
 15 16  2  0
 16 17  1  0
  2 17  1  0
 17 18  2  0
 14 19  1  0
 18 19  1  0
  1 19  1  1
 10 20  1  1
  8 20  1  0
  6 20  1  0
 12 21  1  0
 13 21  2  0
 13 22  1  0
 22 23  2  0
 23 24  1  0
 12 24  2  0
 10 25  1  0
 25 26  2  0
 26 27  1  0
 27 28  2  0
 28 29  1  0
 29 30  2  0
 25 30  1  0
  4 31  1  0
 32 31  1  6
 32 33  1  0
 33 34  1  6
 34 35  1  1
 34 36  1  0
 34 37  1  0
 32 38  2  0
 32 39  2  0
 15 40  1  0
 40 41  1  0
 41 42  1  0
 42 43  1  0
 43 44  2  0
 44 45  1  0
 45 46  2  0
 46 47  1  0
 47 48  2  0
 43 48  1  0
 48 49  1  0
 41 50  2  0
 14 51  2  0
M  END
$$$$
