1R58_AO5_A_501
     RDKit          3D

 45 45  0  0  0  0  0  0  0  0999 V2000
    3.2141    1.2713    1.3682 C   0  0  1  0  0  0  0  0  0  0  0  0
    2.7067    0.8908    2.7617 C   0  0  0  0  0  0  0  0  0  0  0  0
    2.3650    2.3725    0.7269 C   0  0  0  0  0  0  0  0  0  0  0  0
    5.0076    1.6874    1.3490 S   0  0  0  0  0  0  0  0  0  0  0  0
    5.1700    2.4285   -0.3228 C   0  0  0  0  0  0  0  0  0  0  0  0
    3.9946    2.0399   -1.2349 C   0  0  0  0  0  0  0  0  0  0  0  0
    2.9426    1.1494   -0.5301 C   0  0  2  0  0  0  0  0  0  0  0  0
    3.6188    0.1501    0.3034 N   0  0  0  0  0  0  0  0  0  0  0  0
    2.0015    0.4611   -1.5543 C   0  0  1  0  0  0  0  0  0  0  0  0
    1.5809    1.3978   -2.5130 O   0  0  0  0  0  0  0  0  0  0  0  0
    2.6969   -0.6806   -2.2530 C   0  0  0  0  0  0  0  0  0  0  0  0
    2.9656   -0.5865   -3.4815 O   0  0  0  0  0  0  0  0  0  0  0  0
    3.0836   -1.8496   -1.5179 N   0  0  0  0  0  0  0  0  0  0  0  0
    3.4028   -1.7836   -0.1491 N   0  0  0  0  0  0  0  0  0  0  0  0
    3.0551   -0.6362    0.6410 C   0  0  0  0  0  0  0  0  0  0  0  0
    2.5809   -0.7999    1.7983 O   0  0  0  0  0  0  0  0  0  0  0  0
    3.2637    0.7402    0.1295 C   0  0  0  0  0  0  0  0  0  0  0  0
    2.2074    1.4694   -0.4493 C   0  0  0  0  0  0  0  0  0  0  0  0
    2.4192    2.7687   -0.9204 C   0  0  0  0  0  0  0  0  0  0  0  0
    3.6810    3.3570   -0.8150 C   0  0  0  0  0  0  0  0  0  0  0  0
    4.7354    2.6489   -0.2321 C   0  0  0  0  0  0  0  0  0  0  0  0
    4.5281    1.3486    0.2420 C   0  0  0  0  0  0  0  0  0  0  0  0
    6.3190    3.3912   -0.0944 Cl  0  0  0  0  0  0  0  0  0  0  0  0
    3.1096    0.3687    0.7277 H   0  0  0  0  0  0  0  0  0  0  0  0
    3.3594    0.1076    3.2016 H   0  0  0  0  0  0  0  0  0  0  0  0
    2.6797    1.7675    3.4403 H   0  0  0  0  0  0  0  0  0  0  0  0
    1.6771    0.4804    2.6871 H   0  0  0  0  0  0  0  0  0  0  0  0
    1.3288    2.0040    0.5706 H   0  0  0  0  0  0  0  0  0  0  0  0
    2.7872    2.6490   -0.2624 H   0  0  0  0  0  0  0  0  0  0  0  0
    2.3155    3.2788    1.3627 H   0  0  0  0  0  0  0  0  0  0  0  0
    5.2149    3.5327   -0.2129 H   0  0  0  0  0  0  0  0  0  0  0  0
    6.1193    2.1284   -0.8047 H   0  0  0  0  0  0  0  0  0  0  0  0
    4.3680    1.5336   -2.1503 H   0  0  0  0  0  0  0  0  0  0  0  0
    3.5084    2.9845   -1.5596 H   0  0  0  0  0  0  0  0  0  0  0  0
    2.3247    1.7974    0.1328 H   0  0  0  0  0  0  0  0  0  0  0  0
    2.9151   -0.3233    0.9151 H   0  0  0  0  0  0  0  0  0  0  0  0
    4.0551   -0.5789   -0.3077 H   0  0  0  0  0  0  0  0  0  0  0  0
    1.1098    0.0743   -1.0073 H   0  0  0  0  0  0  0  0  0  0  0  0
    0.7901    1.0073   -2.9698 H   0  0  0  0  0  0  0  0  0  0  0  0
    3.0985   -2.7708   -2.0109 H   0  0  0  0  0  0  0  0  0  0  0  0
    3.8619   -2.6009    0.3102 H   0  0  0  0  0  0  0  0  0  0  0  0
    1.2118    1.0520   -0.5179 H   0  0  0  0  0  0  0  0  0  0  0  0
    1.6009    3.3229   -1.3620 H   0  0  0  0  0  0  0  0  0  0  0  0
    3.8367    4.3637   -1.1815 H   0  0  0  0  0  0  0  0  0  0  0  0
    5.3569    0.8117    0.6872 H   0  0  0  0  0  0  0  0  0  0  0  0
  1  2  1  0
  1  3  1  0
  1  4  1  0
  4  5  1  0
  5  6  1  0
  6  7  1  0
  7  8  1  0
  7  9  1  0
  9 10  1  0
  9 11  1  0
 11 12  2  0
 11 13  1  0
 13 14  1  0
 14 15  1  0
 15 16  2  0
 15 17  1  0
 17 18  4  0
 18 19  4  0
 19 20  4  0
 20 21  4  0
 17 22  4  0
 21 22  4  0
 21 23  1  0
  1 24  1  1
  2 25  1  0
  2 26  1  0
  2 27  1  0
  3 28  1  0
  3 29  1  0
  3 30  1  0
  5 31  1  0
  5 32  1  0
  6 33  1  0
  6 34  1  0
  7 35  1  6
  8 36  1  0
  8 37  1  0
  9 38  1  6
 10 39  1  0
 13 40  1  0
 14 41  1  0
 18 42  1  0
 19 43  1  0
 20 44  1  0
 22 45  1  0
M  END
