@<TRIPOS>MOLECULE
1IA1_TQ3_B_196
 31 33 0 0 0
SMALL
GASTEIGER

@<TRIPOS>ATOM
      1 C           7.9580   36.7200   19.3390 C.ar    1  UNL1        0.0789
      2 C           8.9510   35.8750   18.7740 C.ar    1  UNL1        0.0537
      3 C           8.5400   34.6280   18.2160 C.ar    1  UNL1        0.1301
      4 N           7.2920   34.2150   18.2740 N.ar    1  UNL1       -0.1995
      5 C           6.3290   34.9700   18.8520 C.ar    1  UNL1        0.2148
      6 N           6.5800   36.2200   19.3310 N.ar    1  UNL1       -0.2145
      7 N           9.2860   33.6710   17.6330 N.pl3   1  UNL1       -0.3425
      8 C           8.2440   37.9530   19.9000 C.ar    1  UNL1       -0.0354
      9 C           9.5660   38.3970   19.9030 C.ar    1  UNL1       -0.0587
     10 C          10.5870   37.6080   19.3270 C.ar    1  UNL1       -0.0472
     11 C          10.3120   36.4060   18.8230 C.ar    1  UNL1        0.0252
     12 N           5.0510   34.5900   18.9540 N.pl3   1  UNL1       -0.3274
     13 S          11.6410   35.3450   18.2390 S.3     1  UNL1       -0.0887
     14 C          13.0000   36.4830   18.0480 C.ar    1  UNL1        0.0128
     15 C          12.9820   37.3800   17.0130 C.ar    1  UNL1       -0.0480
     16 C          14.0670   38.2710   16.8100 C.ar    1  UNL1       -0.0607
     17 C          15.1960   38.1200   17.6620 C.ar    1  UNL1       -0.0617
     18 C          15.2230   37.2210   18.7080 C.ar    1  UNL1       -0.0607
     19 C          14.1200   36.3210   18.9160 C.ar    1  UNL1       -0.0480
     20 H          10.2523   33.8095   17.5055 H       1  UNL1        0.1437
     21 H           8.8652   32.8326   17.3341 H       1  UNL1        0.1437
     22 H           7.4936   38.5322   20.3080 H       1  UNL1        0.0639
     23 H           9.8001   39.3075   20.3286 H       1  UNL1        0.0619
     24 H          11.5544   37.9662   19.2965 H       1  UNL1        0.0629
     25 H           4.7747   33.7011   18.6335 H       1  UNL1        0.1452
     26 H           4.3864   35.1992   19.3496 H       1  UNL1        0.1452
     27 H          12.1714   37.4079   16.3748 H       1  UNL1        0.0629
     28 H          14.0385   38.9966   16.0767 H       1  UNL1        0.0618
     29 H          16.0279   38.7062   17.4908 H       1  UNL1        0.0618
     30 H          16.0363   37.1940   19.3428 H       1  UNL1        0.0618
     31 H          14.1382   35.5983   19.6524 H       1  UNL1        0.0629
@<TRIPOS>BOND
     1     1     2   ar
     2     2     3   ar
     3     3     4   ar
     4     4     5   ar
     5     1     6   ar
     6     5     6   ar
     7     3     7    1
     8     1     8   ar
     9     8     9   ar
    10     9    10   ar
    11     2    11   ar
    12    10    11   ar
    13     5    12    1
    14    11    13    1
    15    13    14    1
    16    14    15   ar
    17    15    16   ar
    18    16    17   ar
    19    17    18   ar
    20    14    19   ar
    21    18    19   ar
    22     7    20    1
    23     7    21    1
    24     8    22    1
    25     9    23    1
    26    10    24    1
    27    12    25    1
    28    12    26    1
    29    15    27    1
    30    16    28    1
    31    17    29    1
    32    18    30    1
    33    19    31    1
