7K0V_VQP_B_801
     RDKit          3D

 32 34  0  0  0  0  0  0  0  0999 V2000
    5.7855   -1.7067  -24.1382 C   0  0  0  0  0  0  0  0  0  0  0  0
    5.2456   -2.5276  -23.1869 C   0  0  0  0  0  0  0  0  0  0  0  0
    4.4986   -1.8836  -22.1913 C   0  0  0  0  0  0  0  0  0  0  0  0
    4.3254   -0.5184  -22.1779 C   0  0  0  0  0  0  0  0  0  0  0  0
    1.2762    0.9348  -20.7901 C   0  0  0  0  0  0  0  0  0  0  0  0
    0.2089   -1.5677  -20.9773 C   0  0  0  0  0  0  0  0  0  0  0  0
   -2.2982   -4.2908  -21.0390 C   0  0  0  0  0  0  0  0  0  0  0  0
    3.6180   -7.1692  -22.4805 C   0  0  0  0  0  0  0  0  0  0  0  0
    2.7597   -9.5459  -22.2634 C   0  0  1  0  0  0  0  0  0  0  0  0
    4.7013    1.7708  -23.1750 C   0  0  0  0  0  0  0  0  0  0  0  0
   -0.0980    0.7441  -20.6683 C   0  0  0  0  0  0  0  0  0  0  0  0
   -0.6394   -0.5197  -20.7626 C   0  0  0  0  0  0  0  0  0  0  0  0
    1.5724   -1.3732  -21.0976 C   0  0  0  0  0  0  0  0  0  0  0  0
   -0.3232   -2.8314  -21.0724 C   0  0  0  0  0  0  0  0  0  0  0  0
   -2.4900   -1.9340  -20.7370 C   0  0  0  0  0  0  0  0  0  0  0  0
    4.8735    0.2981  -23.1404 C   0  0  0  0  0  0  0  0  0  0  0  0
    4.4084   -4.8746  -22.7549 C   0  0  0  0  0  0  0  0  0  0  0  0
    3.8974   -8.6207  -22.4747 C   0  0  0  0  0  0  0  0  0  0  0  0
    1.6411   -9.4714  -23.2391 C   0  0  0  0  0  0  0  0  0  0  0  0
    5.6106   -0.3137  -24.1274 C   0  0  0  0  0  0  0  0  0  0  0  0
    3.3148  -10.9649  -22.2446 C   0  0  0  0  0  0  0  0  0  0  0  0
    2.1869   -9.2774  -20.8791 C   0  0  0  0  0  0  0  0  0  0  0  0
    2.1467   -0.1109  -21.0072 C   0  0  0  0  0  0  0  0  0  0  0  0
    2.3488   -2.4631  -21.3097 F   0  0  0  0  0  0  0  0  0  0  0  0
    6.5135   -2.1753  -25.1665 F   0  0  0  0  0  0  0  0  0  0  0  0
   -1.6547   -2.9753  -20.9494 N   0  0  0  0  0  0  0  0  0  0  0  0
   -1.9652   -0.6824  -20.6425 N   0  0  0  0  0  0  0  0  0  0  0  0
    5.3766   -3.9153  -23.0800 N   0  0  0  0  0  0  0  0  0  0  0  0
    4.7236   -6.2841  -22.7280 N   0  0  0  0  0  0  0  0  0  0  0  0
    3.5493    0.0450  -21.1468 N   0  0  0  0  0  0  0  0  0  0  0  0
    0.4047   -3.8326  -21.2688 O   0  0  0  0  0  0  0  0  0  0  0  0
    3.2371   -4.5806  -22.4738 O   0  0  0  0  0  0  0  0  0  0  0  0
  1  2  2  0
  2  3  1  0
  3  4  2  0
  5 11  2  0
 11 12  1  0
  6 12  2  0
  6 13  1  0
  6 14  1  0
  4 16  1  0
 10 16  1  0
  9 18  1  0
  8 18  1  0
  9 19  1  6
  1 20  1  0
 16 20  2  0
  9 21  1  0
  9 22  1  0
  5 23  1  0
 13 23  2  0
 13 24  1  0
  1 25  1  0
 14 26  1  0
 15 26  1  0
  7 26  1  0
 12 27  1  0
 15 27  2  0
 17 28  1  0
  2 28  1  0
  8 29  1  0
 17 29  1  0
  4 30  1  0
 23 30  1  0
 14 31  2  0
 17 32  2  0
M  END
$$$$
