7ZCC_OGA_D_402
     RDKit          3D

 10  9  0  0  0  0  0  0  0  0999 V2000
   34.2124    0.5245   36.1147 C   0  0  0  0  0  0  0  0  0  0  0  0
   34.3698    1.9439   36.5676 C   0  0  0  0  0  0  0  0  0  0  0  0
   34.9182    4.3108   36.0994 C   0  0  0  0  0  0  0  0  0  0  0  0
   35.4960    5.1958   34.9842 C   0  0  0  0  0  0  0  0  0  0  0  0
   34.4943    0.2730   34.8981 O   0  0  0  0  0  0  0  0  0  0  0  0
   33.8077   -0.2963   37.0597 O   0  0  0  0  0  0  0  0  0  0  0  0
   34.1671    2.1412   37.7445 O   0  0  0  0  0  0  0  0  0  0  0  0
   35.6931    6.4686   35.1335 O   0  0  0  0  0  0  0  0  0  0  0  0
   34.7555    2.9736   35.6272 N   0  0  0  0  0  0  0  0  0  0  0  0
   35.7723    4.6098   33.9289 O   0  0  0  0  0  0  0  0  0  0  0  0
  1  2  1  0
  3  4  1  0
  1  5  2  0
  1  6  1  0
  2  7  2  0
  4  8  1  0
  2  9  1  0
  3  9  1  0
  4 10  2  0
M  END
