@<TRIPOS>MOLECULE
1HWI_115_B_1
 56 58 0 0 0
SMALL
GASTEIGER

@<TRIPOS>ATOM
      1 C          34.5900   -7.3020  -13.1620 C.ar    1  UNL1        0.0082
      2 C          34.7220   -8.6540  -12.9220 C.ar    1  UNL1        0.0503
      3 C          35.6320   -9.4120  -13.6910 C.ar    1  UNL1       -0.0376
      4 C          36.3980   -8.7790  -14.6960 C.ar    1  UNL1       -0.0598
      5 C          36.2530   -7.4010  -14.9230 C.ar    1  UNL1       -0.0611
      6 C          35.3460   -6.6540  -14.1560 C.ar    1  UNL1       -0.0520
      7 C          33.5600   -6.7290  -12.2210 C.ar    1  UNL1        0.0147
      8 C          33.2020   -7.8280  -11.5240 C.ar    1  UNL1        0.0507
      9 N          33.9300   -9.0170  -11.9660 N.ar    1  UNL1       -0.3372
     10 C          32.0550   -3.3330  -13.1100 C.ar    1  UNL1       -0.0259
     11 C          32.5040   -4.6520  -13.2230 C.ar    1  UNL1       -0.0512
     12 C          33.0830   -5.2880  -12.1180 C.ar    1  UNL1       -0.0151
     13 C          33.2080   -4.5980  -10.9020 C.ar    1  UNL1       -0.0512
     14 C          32.7590   -3.2800  -10.7910 C.ar    1  UNL1       -0.0259
     15 C          32.1810   -2.6500  -11.8980 C.ar    1  UNL1        0.1234
     16 F          31.7350   -1.3640  -11.7930 F       1  UNL1       -0.2055
     17 O          32.4980   -3.2890   -4.9480 O.2     1  UNL1       -0.2509
     18 O          34.0220   -3.8720   -6.5480 O.3     1  UNL1       -0.4806
     19 O          30.8900   -5.3120   -7.3940 O.3     1  UNL1       -0.3912
     20 C          33.0070   -4.1330   -5.6760 C.2     1  UNL1        0.3072
     21 C          32.5760   -5.5940   -5.6880 C.3     1  UNL1        0.0708
     22 C          32.0460   -6.0870   -7.0450 C.3     1  UNL1        0.0679
     23 C          31.6420   -7.5660   -6.9700 C.3     1  UNL1        0.0034
     24 C          31.1070   -8.1150   -8.2960 C.3     1  UNL1        0.0761
     25 C          32.2290   -8.2910   -9.2940 C.2     1  UNL1       -0.0539
     26 C          32.2660   -7.7600  -10.5290 C.2     1  UNL1       -0.0391
     27 C          33.6970  -10.4120  -11.4090 C.3     1  UNL1        0.0295
     28 C          33.4460  -11.4490  -12.5080 C.3     1  UNL1       -0.0445
     29 C          34.8620  -10.8430  -10.4960 C.3     1  UNL1       -0.0445
     30 O          30.4700   -9.3470   -8.0030 O.3     1  UNL1       -0.3877
     31 H          35.7373  -10.4242  -13.5198 H       1  UNL1        0.0638
     32 H          37.0629   -9.3288  -15.2622 H       1  UNL1        0.0618
     33 H          36.8140   -6.9372  -15.6546 H       1  UNL1        0.0618
     34 H          35.2348   -5.6411  -14.3191 H       1  UNL1        0.0624
     35 H          31.6294   -2.8627  -13.9240 H       1  UNL1        0.0646
     36 H          32.4090   -5.1558  -14.1186 H       1  UNL1        0.0624
     37 H          33.6334   -5.0664  -10.0867 H       1  UNL1        0.0624
     38 H          32.8532   -2.7736   -9.8967 H       1  UNL1        0.0646
     39 H          34.3712   -4.5598   -7.0799 H       1  UNL1        0.2951
     40 H          31.1327   -4.3742   -7.4446 H       1  UNL1        0.2098
     41 H          31.8022   -5.7210   -4.9600 H       1  UNL1        0.0403
     42 H          33.4497   -6.1727   -5.4720 H       1  UNL1        0.0403
     43 H          32.8177   -5.9774   -7.7780 H       1  UNL1        0.0599
     44 H          30.8804   -7.6729   -6.2260 H       1  UNL1        0.0318
     45 H          32.5226   -8.1236   -6.7280 H       1  UNL1        0.0318
     46 H          30.4114   -7.4356   -8.7427 H       1  UNL1        0.0638
     47 H          33.0343   -8.8671   -9.0030 H       1  UNL1        0.0598
     48 H          31.4351   -7.1976  -10.7705 H       1  UNL1        0.0636
     49 H          32.8048  -10.3655  -10.8202 H       1  UNL1        0.0522
     50 H          34.3155  -11.5312  -13.1261 H       1  UNL1        0.0249
     51 H          32.6122  -11.1421  -13.1043 H       1  UNL1        0.0249
     52 H          33.2349  -12.3981  -12.0613 H       1  UNL1        0.0249
     53 H          35.7640  -10.8949  -11.0692 H       1  UNL1        0.0249
     54 H          34.6499  -11.8044  -10.0770 H       1  UNL1        0.0249
     55 H          34.9807  -10.1288   -9.7081 H       1  UNL1        0.0249
     56 H          31.1099   -9.9538   -7.5989 H       1  UNL1        0.2102
@<TRIPOS>BOND
     1     1     2   ar
     2     2     3   ar
     3     3     4   ar
     4     4     5   ar
     5     1     6   ar
     6     5     6   ar
     7     1     7   ar
     8     7     8   ar
     9     8     9   ar
    10     2     9   ar
    11    10    11   ar
    12     7    12    1
    13    11    12   ar
    14    12    13   ar
    15    13    14   ar
    16    14    15   ar
    17    10    15   ar
    18    15    16    1
    19    17    20    2
    20    18    20    1
    21    20    21    1
    22    21    22    1
    23    22    19    1
    24    22    23    1
    25    23    24    1
    26    24    25    1
    27    25    26    2
    28     8    26    1
    29     9    27    1
    30    27    28    1
    31    27    29    1
    32    24    30    1
    33     3    31    1
    34     4    32    1
    35     5    33    1
    36     6    34    1
    37    10    35    1
    38    11    36    1
    39    13    37    1
    40    14    38    1
    41    18    39    1
    42    19    40    1
    43    21    41    1
    44    21    42    1
    45    22    43    1
    46    23    44    1
    47    23    45    1
    48    24    46    1
    49    25    47    1
    50    26    48    1
    51    27    49    1
    52    28    50    1
    53    28    51    1
    54    28    52    1
    55    29    53    1
    56    29    54    1
    57    29    55    1
    58    30    56    1
