@<TRIPOS>MOLECULE
1HWI_115_B_1
 56 58 0 0 0
SMALL
GASTEIGER

@<TRIPOS>ATOM
      1 C           0.4996    1.7402    2.2821 C.ar    1  UNL1        0.0082
      2 C           1.6137    1.0448    2.6889 C.ar    1  UNL1        0.0503
      3 C           2.2862    1.3981    3.8694 C.ar    1  UNL1       -0.0376
      4 C           1.7975    2.4840    4.6162 C.ar    1  UNL1       -0.0598
      5 C           0.6526    3.1867    4.1922 C.ar    1  UNL1       -0.0611
      6 C          -0.0153    2.8107    3.0166 C.ar    1  UNL1       -0.0520
      7 C           0.0303    1.1334    1.1367 C.ar    1  UNL1        0.0147
      8 C           0.9041    0.0675    0.8874 C.ar    1  UNL1        0.0507
      9 N           1.8876    0.0241    1.8369 N.ar    1  UNL1       -0.3372
     10 C          -3.3309    0.8291   -0.5740 C.ar    1  UNL1       -0.0259
     11 C          -2.1774    0.5043    0.1454 C.ar    1  UNL1       -0.0512
     12 C          -1.2041    1.4829    0.4029 C.ar    1  UNL1       -0.0151
     13 C          -1.4087    2.7944   -0.0542 C.ar    1  UNL1       -0.0512
     14 C          -2.5658    3.1176   -0.7699 C.ar    1  UNL1       -0.0259
     15 C          -3.5253    2.1352   -1.0324 C.ar    1  UNL1        0.1234
     16 F          -4.6443    2.4495   -1.7302 F       1  UNL1       -0.2055
     17 O          -1.8675   -5.8028   -3.6275 O.2     1  UNL1       -0.2509
     18 O          -3.0598   -4.1643   -4.7092 O.3     1  UNL1       -0.4806
     19 O          -1.3742   -2.8224   -0.5579 O.3     1  UNL1       -0.3912
     20 C          -2.4881   -4.7080   -3.5631 C.2     1  UNL1        0.3072
     21 C          -2.5915   -3.9795   -2.2574 C.3     1  UNL1        0.0708
     22 C          -1.2747   -3.2710   -1.8825 C.3     1  UNL1        0.0679
     23 C          -1.0067   -2.0677   -2.8168 C.3     1  UNL1        0.0034
     24 C           0.3750   -1.3797   -2.6804 C.3     1  UNL1        0.0761
     25 C           0.4985   -0.4635   -1.4818 C.2     1  UNL1       -0.0539
     26 C           0.7787   -0.8806   -0.2411 C.2     1  UNL1       -0.0391
     27 C           3.0124   -0.9297    1.9582 C.3     1  UNL1        0.0295
     28 C           2.5360   -2.2638    2.5381 C.3     1  UNL1       -0.0445
     29 C           3.7740   -1.1109    0.6367 C.3     1  UNL1       -0.0445
     30 O           1.4519   -2.2779   -2.7996 O.3     1  UNL1       -0.3877
     31 H           3.1497    0.8583    4.2284 H       1  UNL1        0.0638
     32 H           2.2985    2.7759    5.5302 H       1  UNL1        0.0618
     33 H           0.2796    4.0141    4.7817 H       1  UNL1        0.0618
     34 H          -0.9082    3.3344    2.7021 H       1  UNL1        0.0624
     35 H          -4.0740    0.0680   -0.7736 H       1  UNL1        0.0646
     36 H          -2.0466   -0.5061    0.5087 H       1  UNL1        0.0624
     37 H          -0.6654    3.5610    0.1274 H       1  UNL1        0.0624
     38 H          -2.7149    4.1290   -1.1257 H       1  UNL1        0.0646
     39 H          -2.9908   -4.6410   -5.6003 H       1  UNL1        0.2951
     40 H          -1.1958   -3.6041    0.0280 H       1  UNL1        0.2098
     41 H          -2.8504   -4.7183   -1.4677 H       1  UNL1        0.0403
     42 H          -3.4218   -3.2412   -2.3043 H       1  UNL1        0.0403
     43 H          -0.4439   -4.0075   -1.9747 H       1  UNL1        0.0599
     44 H          -1.0874   -2.4139   -3.8698 H       1  UNL1        0.0318
     45 H          -1.8049   -1.3060   -2.6709 H       1  UNL1        0.0318
     46 H           0.4454   -0.7052   -3.5619 H       1  UNL1        0.0638
     47 H           0.3965    0.5994   -1.6665 H       1  UNL1        0.0598
     48 H           0.9509   -1.9265   -0.0495 H       1  UNL1        0.0636
     49 H           3.7639   -0.5242    2.6651 H       1  UNL1        0.0522
     50 H           1.8119   -2.7644    1.8656 H       1  UNL1        0.0249
     51 H           3.4022   -2.9416    2.6942 H       1  UNL1        0.0249
     52 H           2.0461   -2.0907    3.5196 H       1  UNL1        0.0249
     53 H           3.9193   -0.1273    0.1414 H       1  UNL1        0.0249
     54 H           3.2515   -1.7973   -0.0580 H       1  UNL1        0.0249
     55 H           4.7750   -1.5486    0.8394 H       1  UNL1        0.0249
     56 H           1.4737   -2.8562   -1.9972 H       1  UNL1        0.2102
@<TRIPOS>BOND
     1     1     2   ar
     2     2     3   ar
     3     3     4   ar
     4     4     5   ar
     5     1     6   ar
     6     5     6   ar
     7     1     7   ar
     8     7     8   ar
     9     8     9   ar
    10     2     9   ar
    11    10    11   ar
    12     7    12    1
    13    11    12   ar
    14    12    13   ar
    15    13    14   ar
    16    14    15   ar
    17    10    15   ar
    18    15    16    1
    19    17    20    2
    20    18    20    1
    21    20    21    1
    22    21    22    1
    23    22    19    1
    24    22    23    1
    25    23    24    1
    26    24    25    1
    27    25    26    2
    28     8    26    1
    29     9    27    1
    30    27    28    1
    31    27    29    1
    32    24    30    1
    33     3    31    1
    34     4    32    1
    35     5    33    1
    36     6    34    1
    37    10    35    1
    38    11    36    1
    39    13    37    1
    40    14    38    1
    41    18    39    1
    42    19    40    1
    43    21    41    1
    44    21    42    1
    45    22    43    1
    46    23    44    1
    47    23    45    1
    48    24    46    1
    49    25    47    1
    50    26    48    1
    51    27    49    1
    52    28    50    1
    53    28    51    1
    54    28    52    1
    55    29    53    1
    56    29    54    1
    57    29    55    1
    58    30    56    1
