7OEO_V9Z_AAA_501
     RDKit          3D

 62 64  0  0  0  0  0  0  0  0999 V2000
  -16.5583   -6.9841  -22.7509 N   0  0  0  0  0  0  0  0  0  0  0  0
  -16.0052   -6.1745  -23.8357 C   0  0  0  0  0  0  0  0  0  0  0  0
  -16.8013   -2.5630  -26.5380 C   0  0  0  0  0  0  0  0  0  0  0  0
  -16.3828   -8.9320  -21.6897 C   0  0  0  0  0  0  0  0  0  0  0  0
  -17.7358   -8.8002  -21.1920 N   0  0  0  0  0  0  0  0  0  0  0  0
  -18.4343   -7.6824  -21.3237 C   0  0  0  0  0  0  0  0  0  0  0  0
  -19.4914   -7.4911  -20.7291 O   0  0  0  0  0  0  0  0  0  0  0  0
  -17.8681   -6.6178  -22.2459 C   0  0  0  0  0  0  0  0  0  0  0  0
  -15.9500   -4.6865  -23.4794 C   0  0  2  0  0  0  0  0  0  0  0  0
  -16.7003   -3.8010  -24.4730 C   0  0  0  0  0  0  0  0  0  0  0  0
  -16.1050   -3.3639  -25.6481 C   0  0  0  0  0  0  0  0  0  0  0  0
  -18.0961   -2.1913  -26.2686 C   0  0  0  0  0  0  0  0  0  0  0  0
  -18.6998   -2.6171  -25.1057 C   0  0  0  0  0  0  0  0  0  0  0  0
  -18.0082   -3.4167  -24.2134 C   0  0  0  0  0  0  0  0  0  0  0  0
  -14.5049   -4.2402  -23.2942 C   0  0  0  0  0  0  0  0  0  0  0  0
  -13.5402   -5.1291  -22.8417 C   0  0  0  0  0  0  0  0  0  0  0  0
  -12.2279   -4.7235  -22.6770 C   0  0  0  0  0  0  0  0  0  0  0  0
  -11.8607   -3.4268  -22.9657 C   0  0  0  0  0  0  0  0  0  0  0  0
  -12.8094   -2.5332  -23.4079 C   0  0  0  0  0  0  0  0  0  0  0  0
  -14.1235   -2.9349  -23.5718 C   0  0  0  0  0  0  0  0  0  0  0  0
  -16.0085   -8.0952  -22.2177 C   0  0  0  0  0  0  0  0  0  0  0  0
  -16.1284   -9.1845  -22.7477 O   0  0  0  0  0  0  0  0  0  0  0  0
  -15.2262   -7.9951  -20.9437 C   0  0  0  0  0  0  0  0  0  0  0  0
  -14.9761   -6.7547  -20.3609 C   0  0  0  0  0  0  0  0  0  0  0  0
  -14.2187   -6.6362  -19.2007 C   0  0  0  0  0  0  0  0  0  0  0  0
  -13.9858   -5.2802  -18.5811 C   0  0  0  0  0  0  0  0  0  0  0  0
  -13.7121   -7.8063  -18.6364 C   0  0  0  0  0  0  0  0  0  0  0  0
  -12.9522   -7.7151  -17.4926 O   0  0  0  0  0  0  0  0  0  0  0  0
  -12.6830   -8.9796  -16.8996 C   0  0  0  0  0  0  0  0  0  0  0  0
  -13.9287   -9.0699  -19.2008 C   0  0  0  0  0  0  0  0  0  0  0  0
  -13.3621  -10.3266  -18.5949 C   0  0  0  0  0  0  0  0  0  0  0  0
  -14.6818   -9.1355  -20.3677 C   0  0  0  0  0  0  0  0  0  0  0  0
  -15.0132   -6.5147  -24.0477 H   0  0  0  0  0  0  0  0  0  0  0  0
  -16.6456   -6.2844  -24.6859 H   0  0  0  0  0  0  0  0  0  0  0  0
  -16.3455   -2.2440  -27.4073 H   0  0  0  0  0  0  0  0  0  0  0  0
  -16.0174   -9.9141  -21.4736 H   0  0  0  0  0  0  0  0  0  0  0  0
  -16.3750   -8.7733  -22.7478 H   0  0  0  0  0  0  0  0  0  0  0  0
  -15.7559   -8.2060  -21.2155 H   0  0  0  0  0  0  0  0  0  0  0  0
  -18.1518   -9.5691  -20.7392 H   0  0  0  0  0  0  0  0  0  0  0  0
  -17.7861   -5.6985  -21.7045 H   0  0  0  0  0  0  0  0  0  0  0  0
  -18.5296   -6.5145  -23.0806 H   0  0  0  0  0  0  0  0  0  0  0  0
  -16.4647   -4.5649  -22.5491 H   0  0  0  0  0  0  0  0  0  0  0  0
  -15.1334   -3.6386  -25.8611 H   0  0  0  0  0  0  0  0  0  0  0  0
  -18.6139   -1.5961  -26.9338 H   0  0  0  0  0  0  0  0  0  0  0  0
  -19.6718   -2.3385  -24.8994 H   0  0  0  0  0  0  0  0  0  0  0  0
  -18.4698   -3.7308  -23.3455 H   0  0  0  0  0  0  0  0  0  0  0  0
  -13.8045   -6.1031  -22.6258 H   0  0  0  0  0  0  0  0  0  0  0  0
  -11.5213   -5.3943  -22.3367 H   0  0  0  0  0  0  0  0  0  0  0  0
  -10.8797   -3.1276  -22.8509 H   0  0  0  0  0  0  0  0  0  0  0  0
  -12.5396   -1.5595  -23.6180 H   0  0  0  0  0  0  0  0  0  0  0  0
  -14.8270   -2.2569  -23.9039 H   0  0  0  0  0  0  0  0  0  0  0  0
  -15.3617   -5.9042  -20.8003 H   0  0  0  0  0  0  0  0  0  0  0  0
  -14.4614   -4.5293  -19.1769 H   0  0  0  0  0  0  0  0  0  0  0  0
  -14.3959   -5.2644  -17.5929 H   0  0  0  0  0  0  0  0  0  0  0  0
  -12.9347   -5.0855  -18.5342 H   0  0  0  0  0  0  0  0  0  0  0  0
  -12.0915   -8.8416  -16.0187 H   0  0  0  0  0  0  0  0  0  0  0  0
  -13.6055   -9.4549  -16.6388 H   0  0  0  0  0  0  0  0  0  0  0  0
  -12.1496   -9.5934  -17.5950 H   0  0  0  0  0  0  0  0  0  0  0  0
  -12.8165  -10.0803  -17.7081 H   0  0  0  0  0  0  0  0  0  0  0  0
  -14.1603  -10.9951  -18.3485 H   0  0  0  0  0  0  0  0  0  0  0  0
  -12.7068  -10.7973  -19.2978 H   0  0  0  0  0  0  0  0  0  0  0  0
  -14.8397  -10.0517  -20.8156 H   0  0  0  0  0  0  0  0  0  0  0  0
  1  2  1  0
  4  5  1  0
  5  6  1  0
  6  7  2  0
  1  8  1  0
  6  8  1  0
  2  9  1  0
  9 10  1  0
  3 11  4  0
 10 11  4  0
  3 12  4  0
 12 13  4  0
 13 14  4  0
 10 14  4  0
  9 15  1  0
 15 16  4  0
 16 17  4  0
 17 18  4  0
 18 19  4  0
 15 20  4  0
 19 20  4  0
  1 21  1  0
 21 22  2  0
 21 23  1  0
 23 24  4  0
 24 25  4  0
 25 26  1  0
 25 27  4  0
 27 28  1  0
 28 29  1  0
 27 30  4  0
 30 31  1  0
 23 32  4  0
 30 32  4  0
  2 33  1  0
  2 34  1  0
  3 35  1  0
  4 36  1  0
  4 37  1  0
  4 38  1  0
  5 39  1  0
  8 40  1  0
  8 41  1  0
  9 42  1  6
 11 43  1  0
 12 44  1  0
 13 45  1  0
 14 46  1  0
 16 47  1  0
 17 48  1  0
 18 49  1  0
 19 50  1  0
 20 51  1  0
 24 52  1  0
 26 53  1  0
 26 54  1  0
 26 55  1  0
 29 56  1  0
 29 57  1  0
 29 58  1  0
 31 59  1  0
 31 60  1  0
 31 61  1  0
 32 62  1  0
M  END
