8EAD_UY0_A_202
     RDKit          3D

 73 76  0  0  0  0  0  0  0  0999 V2000
   -0.4905   -4.2260    4.5086 C   0  0  0  0  0  0  0  0  0  0  0  0
   -2.9770   -6.9081    4.5855 C   0  0  0  0  0  0  0  0  0  0  0  0
   -4.5732   -5.4975    5.7490 C   0  0  0  0  0  0  0  0  0  0  0  0
   -3.0789   -4.3859    7.2813 C   0  0  0  0  0  0  0  0  0  0  0  0
   -0.1382   -2.6585    2.6844 C   0  0  0  0  0  0  0  0  0  0  0  0
    0.3478    1.0848   -0.0943 C   0  0  0  0  0  0  0  0  0  0  0  0
    0.9401   -0.1308   -2.1920 C   0  0  0  0  0  0  0  0  0  0  0  0
    0.0493   -1.9871   -3.4771 C   0  0  0  0  0  0  0  0  0  0  0  0
   -1.4974    2.7841   -0.5176 C   0  0  0  0  0  0  0  0  0  0  0  0
   -0.7157    1.8737    0.3872 C   0  0  0  0  0  0  0  0  0  0  0  0
   -1.0270    1.7919    1.7536 C   0  0  0  0  0  0  0  0  0  0  0  0
    0.6676    0.1765    2.0775 C   0  0  0  0  0  0  0  0  0  0  0  0
    0.7525   -1.9175    3.4738 C   0  0  0  0  0  0  0  0  0  0  0  0
    1.0526   -2.3667    4.7719 C   0  0  0  0  0  0  0  0  0  0  0  0
    0.4325   -3.5054    5.2882 C   0  0  0  0  0  0  0  0  0  0  0  0
   -1.5741   -6.4537    4.1770 C   0  0  0  0  0  0  0  0  0  0  0  0
   -4.5452   -4.5053    6.8973 C   0  0  0  0  0  0  0  0  0  0  0  0
   -2.3503   -5.4309    6.4446 C   0  0  0  0  0  0  0  0  0  0  0  0
   -0.7615   -3.7991    3.2031 C   0  0  0  0  0  0  0  0  0  0  0  0
   -0.1526   -0.8173   -2.7421 C   0  0  0  0  0  0  0  0  0  0  0  0
    1.3430   -2.4775   -3.6819 C   0  0  0  0  0  0  0  0  0  0  0  0
    2.4473   -1.7917   -3.1424 C   0  0  0  0  0  0  0  0  0  0  0  0
    3.4163   -1.7351   -6.2126 C   0  0  1  0  0  0  0  0  0  0  0  0
    4.1409   -1.1975   -7.4578 C   0  0  0  0  0  0  0  0  0  0  0  0
    2.3290   -0.7369   -5.7784 C   0  0  0  0  0  0  0  0  0  0  0  0
    2.7701   -3.0929   -6.5357 C   0  0  0  0  0  0  0  0  0  0  0  0
    2.2345   -0.6279   -2.3830 C   0  0  0  0  0  0  0  0  0  0  0  0
   -0.3337    0.9520    2.5667 N   0  0  0  0  0  0  0  0  0  0  0  0
    1.3656   -0.7308    2.9405 N   0  0  0  0  0  0  0  0  0  0  0  0
   -3.3713   -6.3239    5.8834 N   0  0  0  0  0  0  0  0  0  0  0  0
    1.0045    0.2654    0.7664 N   0  0  0  0  0  0  0  0  0  0  0  0
    0.7370    1.0952   -1.4768 N   0  0  0  0  0  0  0  0  0  0  0  0
    3.7811   -2.2596   -3.3836 N   0  0  0  0  0  0  0  0  0  0  0  0
   -1.1519   -5.3639    4.9932 O   0  0  0  0  0  0  0  0  0  0  0  0
    5.4156   -0.6842   -4.7184 O   0  0  0  0  0  0  0  0  0  0  0  0
    5.5380   -3.0728   -5.2009 O   0  0  0  0  0  0  0  0  0  0  0  0
    4.6052   -1.9395   -4.8767 S   0  0  2  0  0  6  0  0  0  0  0  0
    1.5550   -3.9158   -4.6721 Cl  0  0  0  0  0  0  0  0  0  0  0  0
   -2.9491   -8.0172    4.6811 H   0  0  0  0  0  0  0  0  0  0  0  0
   -3.7104   -6.6615    3.7841 H   0  0  0  0  0  0  0  0  0  0  0  0
   -5.4844   -6.1327    5.7986 H   0  0  0  0  0  0  0  0  0  0  0  0
   -4.5710   -4.9338    4.7856 H   0  0  0  0  0  0  0  0  0  0  0  0
   -2.6931   -3.3671    7.0561 H   0  0  0  0  0  0  0  0  0  0  0  0
   -2.9478   -4.5941    8.3665 H   0  0  0  0  0  0  0  0  0  0  0  0
   -0.3673   -2.3388    1.6759 H   0  0  0  0  0  0  0  0  0  0  0  0
   -0.8007   -2.5006   -3.9058 H   0  0  0  0  0  0  0  0  0  0  0  0
   -0.8143    3.5152   -0.9994 H   0  0  0  0  0  0  0  0  0  0  0  0
   -2.2759    3.3388    0.0435 H   0  0  0  0  0  0  0  0  0  0  0  0
   -2.0088    2.1832   -1.2997 H   0  0  0  0  0  0  0  0  0  0  0  0
   -1.8261    2.3889    2.1736 H   0  0  0  0  0  0  0  0  0  0  0  0
    1.7772   -1.8457    5.3836 H   0  0  0  0  0  0  0  0  0  0  0  0
    0.6831   -3.8199    6.2909 H   0  0  0  0  0  0  0  0  0  0  0  0
   -0.8636   -7.3022    4.2780 H   0  0  0  0  0  0  0  0  0  0  0  0
   -1.5956   -6.1251    3.1158 H   0  0  0  0  0  0  0  0  0  0  0  0
   -5.1321   -4.9046    7.7539 H   0  0  0  0  0  0  0  0  0  0  0  0
   -4.9665   -3.5234    6.5891 H   0  0  0  0  0  0  0  0  0  0  0  0
   -1.7706   -4.9157    5.6445 H   0  0  0  0  0  0  0  0  0  0  0  0
   -1.6487   -6.0144    7.0790 H   0  0  0  0  0  0  0  0  0  0  0  0
   -1.4638   -4.3504    2.5901 H   0  0  0  0  0  0  0  0  0  0  0  0
   -1.1591   -0.4427   -2.6015 H   0  0  0  0  0  0  0  0  0  0  0  0
    4.6501   -0.2392   -7.2303 H   0  0  0  0  0  0  0  0  0  0  0  0
    3.4209   -1.0252   -8.2866 H   0  0  0  0  0  0  0  0  0  0  0  0
    4.9047   -1.9235   -7.8055 H   0  0  0  0  0  0  0  0  0  0  0  0
    1.7949   -1.1069   -4.8772 H   0  0  0  0  0  0  0  0  0  0  0  0
    2.7770    0.2522   -5.5385 H   0  0  0  0  0  0  0  0  0  0  0  0
    1.5805   -0.5942   -6.5887 H   0  0  0  0  0  0  0  0  0  0  0  0
    2.0510   -2.9937   -7.3767 H   0  0  0  0  0  0  0  0  0  0  0  0
    2.2211   -3.4832   -5.6538 H   0  0  0  0  0  0  0  0  0  0  0  0
    3.5419   -3.8363   -6.8278 H   0  0  0  0  0  0  0  0  0  0  0  0
    3.0772   -0.0870   -1.9691 H   0  0  0  0  0  0  0  0  0  0  0  0
    2.3736   -0.5460    3.1451 H   0  0  0  0  0  0  0  0  0  0  0  0
    0.6950    1.9857   -2.0212 H   0  0  0  0  0  0  0  0  0  0  0  0
    4.1682   -3.0200   -2.7842 H   0  0  0  0  0  0  0  0  0  0  0  0
  6 10  4  0
  9 10  1  0
 10 11  4  0
  5 13  4  0
 13 14  4  0
  1 15  4  0
 14 15  4  0
  2 16  1  0
  4 17  1  0
  3 17  1  0
  4 18  1  0
  1 19  4  0
  5 19  4  0
  7 20  4  0
  8 20  4  0
  8 21  4  0
 21 22  4  0
 23 24  1  1
 23 25  1  0
 23 26  1  0
 22 27  4  0
  7 27  4  0
 12 28  4  0
 11 28  4  0
 13 29  1  0
 12 29  1  0
  2 30  1  0
 18 30  1  0
  3 30  1  0
 12 31  4  0
  6 31  4  0
  7 32  1  0
  6 32  1  0
 22 33  1  0
 16 34  1  0
  1 34  1  0
 36 37  2  0
 23 37  1  0
 35 37  2  0
 37 33  1  6
 21 38  1  0
  2 39  1  0
  2 40  1  0
  3 41  1  0
  3 42  1  0
  4 43  1  0
  4 44  1  0
  5 45  1  0
  8 46  1  0
  9 47  1  0
  9 48  1  0
  9 49  1  0
 11 50  1  0
 14 51  1  0
 15 52  1  0
 16 53  1  0
 16 54  1  0
 17 55  1  0
 17 56  1  0
 18 57  1  0
 18 58  1  0
 19 59  1  0
 20 60  1  0
 24 61  1  0
 24 62  1  0
 24 63  1  0
 25 64  1  0
 25 65  1  0
 25 66  1  0
 26 67  1  0
 26 68  1  0
 26 69  1  0
 27 70  1  0
 29 71  1  0
 32 72  1  0
 33 73  1  0
M  END
