
     RDKit          3D

 22 22  0  0  0  0  0  0  0  0999 V2000
    0.4448  -32.5027   16.4117 C   0  0  0  0  0  0  0  0  0  0  0  0
    0.5575  -26.8999   15.0638 C   0  0  0  0  0  0  0  0  0  0  0  0
   -5.0050  -28.9619   18.2735 C   0  0  0  0  0  0  0  0  0  0  0  0
   -5.3734  -26.0273   17.8840 C   0  0  0  0  0  0  0  0  0  0  0  0
   -4.1930  -26.5953   17.6077 C   0  0  0  0  0  0  0  0  0  0  0  0
   -3.9069  -28.0608   17.6910 C   0  0  0  0  0  0  0  0  0  0  0  0
   -1.6901  -27.9175   16.8399 C   0  0  0  0  0  0  0  0  0  0  0  0
   -0.5964  -28.8275   16.3153 C   0  0  0  0  0  0  0  0  0  0  0  0
   -0.6059  -30.1999   16.6217 C   0  0  0  0  0  0  0  0  0  0  0  0
    0.4010  -31.0327   16.1179 C   0  0  0  0  0  0  0  0  0  0  0  0
    1.3847  -29.2518   15.0290 C   0  0  0  0  0  0  0  0  0  0  0  0
    0.4331  -28.3398   15.4818 C   0  0  0  0  0  0  0  0  0  0  0  0
   -2.8232  -28.6793   17.3651 N   0  0  0  0  0  0  0  0  0  0  0  0
    1.3962  -30.5686   15.3285 N   0  0  0  0  0  0  0  0  0  0  0  0
   -1.6207  -30.6789   17.4078 O   0  0  0  0  0  0  0  0  0  0  0  0
    1.2656  -26.1773   16.0484 O   0  0  0  0  0  0  0  0  0  0  0  0
    1.5625  -24.3181   17.8010 O   0  0  0  0  0  0  0  0  0  0  0  0
    0.8285  -23.7223   15.5149 O   0  0  0  0  0  0  0  0  0  0  0  0
   -0.8233  -24.9292   17.0086 O   0  0  0  0  0  0  0  0  0  0  0  0
   -4.6394  -29.4597   19.4703 O   0  0  0  0  0  0  0  0  0  0  0  0
   -6.0658  -29.2185   17.7452 O   0  0  0  0  0  0  0  0  0  0  0  0
    0.6170  -24.8444   16.6337 P   0  0  0  0  0  5  0  0  0  0  0  0
  4  5  2  0
  5  6  1  0
  3  6  1  0
  7  8  1  0
  8  9  4  0
  1 10  1  0
  9 10  4  0
 11 12  4  0
  2 12  1  0
  8 12  4  0
  7 13  1  0
  6 13  2  0
 11 14  4  0
 10 14  4  0
  9 15  1  0
  2 16  1  0
  3 20  1  0
  3 21  2  0
 19 22  2  0
 16 22  1  0
 17 22  1  0
 18 22  1  0
M  END
