7WN5_JGL_A_501
     RDKit          3D

 57 61  0  0  0  0  0  0  0  0999 V2000
   -3.3477   -1.6407   -1.0535 F   0  0  0  0  0  0  0  0  0  0  0  0
   -4.0914   -2.6570   -1.5581 C   0  0  0  0  0  0  0  0  0  0  0  0
   -5.4292   -2.4210   -1.8928 C   0  0  0  0  0  0  0  0  0  0  0  0
   -6.2322   -3.4668   -2.3572 C   0  0  0  0  0  0  0  0  0  0  0  0
   -7.5287   -3.2350   -2.6786 F   0  0  0  0  0  0  0  0  0  0  0  0
   -5.7015   -4.7541   -2.4776 C   0  0  0  0  0  0  0  0  0  0  0  0
   -4.3654   -4.9946   -2.1439 C   0  0  0  0  0  0  0  0  0  0  0  0
   -3.5461   -3.9486   -1.7018 C   0  0  0  0  0  0  0  0  0  0  0  0
   -2.2144   -4.2334   -1.3705 O   0  0  0  0  0  0  0  0  0  0  0  0
   -1.2301   -3.2779   -1.0698 C   0  0  0  0  0  0  0  0  0  0  0  0
    0.1138   -3.6488   -0.8941 C   0  0  0  0  0  0  0  0  0  0  0  0
    1.0826   -2.6864   -0.6059 C   0  0  0  0  0  0  0  0  0  0  0  0
    0.7299   -1.3378   -0.4619 C   0  0  0  0  0  0  0  0  0  0  0  0
    1.7597   -0.3723   -0.1807 N   0  0  0  0  0  0  0  0  0  0  0  0
    2.8208    0.3282   -1.3668 S   0  0  1  0  0  6  0  0  0  0  0  0
    3.7111   -0.7199   -1.9741 O   0  0  0  0  0  0  0  0  0  0  0  0
    1.9809    0.9198   -2.4631 O   0  0  0  0  0  0  0  0  0  0  0  0
    3.7992    1.6351   -0.6387 C   0  0  0  0  0  0  0  0  0  0  0  0
    4.6038    1.1412    0.5553 C   0  0  0  0  0  0  0  0  0  0  0  0
   -0.6150   -0.9668   -0.6275 C   0  0  0  0  0  0  0  0  0  0  0  0
   -1.5987   -1.9270   -0.9186 C   0  0  0  0  0  0  0  0  0  0  0  0
   -3.0064   -1.4983   -1.0843 C   0  0  0  0  0  0  0  0  0  0  0  0
   -4.0196   -2.4093   -1.4567 C   0  0  0  0  0  0  0  0  0  0  0  0
   -5.3307   -2.0035   -1.5889 N   0  0  0  0  0  4  0  0  0  0  0  0
   -6.3551   -2.9865   -1.9612 C   0  0  0  0  0  0  0  0  0  0  0  0
   -5.6917   -0.6994   -1.3359 C   0  0  0  0  0  0  0  0  0  0  0  0
   -6.8922   -0.3232   -1.4344 O   0  0  0  0  0  0  0  0  0  0  0  0
   -4.7022    0.2060   -0.9658 C   0  0  0  0  0  0  0  0  0  0  0  0
   -4.7575    1.5497   -0.6691 C   0  0  0  0  0  0  0  0  0  0  0  0
   -3.4002   -0.1814   -0.8487 C   0  0  0  0  0  0  0  0  0  0  0  0
   -2.6486    0.8383   -0.5086 O   0  0  0  0  0  0  0  0  0  0  0  0
   -3.4363    1.8919   -0.3929 C   0  0  0  0  0  0  0  0  0  0  0  0
   -2.9535    3.2304   -0.0274 C   0  0  0  0  0  0  0  0  0  0  0  0
   -1.9780    3.9480   -0.6812 C   0  0  0  0  0  0  0  0  0  0  0  0
   -1.8072    5.1304   -0.0570 N   0  0  0  0  0  0  0  0  0  0  0  0
   -2.6892    5.0998    0.9654 C   0  0  0  0  0  0  0  0  0  0  0  0
   -3.4015    3.9583    1.0081 N   0  0  0  0  0  4  0  0  0  0  0  0
   -5.8469   -1.4286   -1.7814 H   0  0  0  0  0  0  0  0  0  0  0  0
   -6.3248   -5.5667   -2.8282 H   0  0  0  0  0  0  0  0  0  0  0  0
   -3.9611   -5.9945   -2.2388 H   0  0  0  0  0  0  0  0  0  0  0  0
    0.4130   -4.6856   -0.9746 H   0  0  0  0  0  0  0  0  0  0  0  0
    2.1129   -2.9957   -0.4828 H   0  0  0  0  0  0  0  0  0  0  0  0
    1.7954    0.0523    0.7731 H   0  0  0  0  0  0  0  0  0  0  0  0
    3.1204    2.4509   -0.3117 H   0  0  0  0  0  0  0  0  0  0  0  0
    4.4917    2.0390   -1.4073 H   0  0  0  0  0  0  0  0  0  0  0  0
    5.1797    1.9860    0.9879 H   0  0  0  0  0  0  0  0  0  0  0  0
    5.3205    0.3540    0.2402 H   0  0  0  0  0  0  0  0  0  0  0  0
    3.9249    0.7413    1.3372 H   0  0  0  0  0  0  0  0  0  0  0  0
   -0.9114    0.0654   -0.5374 H   0  0  0  0  0  0  0  0  0  0  0  0
   -3.7538   -3.4469   -1.6234 H   0  0  0  0  0  0  0  0  0  0  0  0
   -7.0047   -3.1981   -1.0855 H   0  0  0  0  0  0  0  0  0  0  0  0
   -6.9781   -2.5927   -2.7928 H   0  0  0  0  0  0  0  0  0  0  0  0
   -5.9025   -3.9416   -2.3051 H   0  0  0  0  0  0  0  0  0  0  0  0
   -5.6295    2.1902   -0.6650 H   0  0  0  0  0  0  0  0  0  0  0  0
   -1.4297    3.6383   -1.5607 H   0  0  0  0  0  0  0  0  0  0  0  0
   -2.8102    5.9084    1.6741 H   0  0  0  0  0  0  0  0  0  0  0  0
   -4.1378    3.7035    1.7028 H   0  0  0  0  0  0  0  0  0  0  0  0
  1  2  1  0
  2  3  4  0
  3  4  4  0
  4  5  1  0
  4  6  4  0
  6  7  4  0
  2  8  4  0
  7  8  4  0
  8  9  1  0
  9 10  1  0
 10 11  4  0
 11 12  4  0
 12 13  4  0
 13 14  1  0
 15 14  1  1
 15 16  2  0
 15 17  2  0
 15 18  1  0
 18 19  1  0
 13 20  4  0
 10 21  4  0
 20 21  4  0
 21 22  1  0
 22 23  4  0
 23 24  4  0
 24 25  1  0
 24 26  4  0
 26 27  2  0
 26 28  4  0
 28 29  4  0
 28 30  4  0
 22 30  4  0
 30 31  4  0
 29 32  4  0
 31 32  4  0
 32 33  1  0
 33 34  4  0
 34 35  4  0
 35 36  4  0
 36 37  4  0
 33 37  4  0
  3 38  1  0
  6 39  1  0
  7 40  1  0
 11 41  1  0
 12 42  1  0
 14 43  1  0
 18 44  1  0
 18 45  1  0
 19 46  1  0
 19 47  1  0
 19 48  1  0
 20 49  1  0
 23 50  1  0
 25 51  1  0
 25 52  1  0
 25 53  1  0
 29 54  1  0
 34 55  1  0
 36 56  1  0
 37 57  1  0
M  CHG  2  24   1  37   1
M  END
