8FAV_4Y5_B_602
     RDKit          3D

 33 36  0  0  0  0  0  0  0  0999 V2000
    4.2914  -59.9866  -16.6907 C   0  0  0  0  0  0  0  0  0  0  0  0
    3.6458  -60.3363  -17.8834 C   0  0  0  0  0  0  0  0  0  0  0  0
    3.2463  -59.3772  -18.7994 C   0  0  0  0  0  0  0  0  0  0  0  0
    3.5342  -58.0652  -18.4419 C   0  0  0  0  0  0  0  0  0  0  0  0
    4.1613  -57.7035  -17.2869 C   0  0  0  0  0  0  0  0  0  0  0  0
    3.0595  -57.2885  -19.4714 C   0  0  0  0  0  0  0  0  0  0  0  0
    2.2511  -60.5672  -20.6535 C   0  0  0  0  0  0  0  0  0  0  0  0
    0.9971  -61.0312  -24.6666 C   0  0  0  0  0  0  0  0  0  0  0  0
    0.2600  -60.3308  -23.7537 C   0  0  0  0  0  0  0  0  0  0  0  0
    4.4841  -56.2278  -21.5474 F   0  0  0  0  0  0  0  0  0  0  0  0
    3.8533  -55.3680  -20.7044 C   0  0  0  0  0  0  0  0  0  0  0  0
    3.9452  -53.9879  -20.9160 C   0  0  0  0  0  0  0  0  0  0  0  0
    3.2974  -53.1225  -20.0479 C   0  0  0  0  0  0  0  0  0  0  0  0
    3.4230  -51.6933  -20.3008 C   0  0  0  0  0  0  0  0  0  0  0  0
    2.9390  -50.7150  -19.4699 O   0  0  0  0  0  0  0  0  0  0  0  0
    4.0216  -51.3383  -21.3632 O   0  0  0  0  0  0  0  0  0  0  0  0
    2.5633  -53.6003  -18.9792 C   0  0  0  0  0  0  0  0  0  0  0  0
    2.4750  -54.9621  -18.7740 C   0  0  0  0  0  0  0  0  0  0  0  0
    3.1081  -55.8478  -19.6191 C   0  0  0  0  0  0  0  0  0  0  0  0
    4.4102  -56.4035  -17.0105 F   0  0  0  0  0  0  0  0  0  0  0  0
    4.5493  -58.6710  -16.3920 C   0  0  0  0  0  0  0  0  0  0  0  0
    2.5393  -58.1260  -20.3463 N   0  0  0  0  0  0  0  0  0  0  0  0
    2.6177  -59.3948  -20.0056 N   0  0  0  0  0  0  0  0  0  0  0  0
    2.2172  -61.6220  -19.8870 O   0  0  0  0  0  0  0  0  0  0  0  0
    1.9016  -60.8643  -22.0120 C   0  0  0  0  0  0  0  0  0  0  0  0
    0.7120  -60.2576  -22.4654 C   0  0  0  0  0  0  0  0  0  0  0  0
   -0.2929  -59.3372  -21.3348 Cl  0  0  0  0  0  0  0  0  0  0  0  0
    2.1533  -61.6275  -24.2499 C   0  0  0  0  0  0  0  0  0  0  0  0
    2.6264  -61.5596  -22.9311 C   0  0  0  0  0  0  0  0  0  0  0  0
    3.8764  -62.2984  -22.6650 C   0  0  1  0  0  0  0  0  0  0  0  0
    3.6560  -63.2369  -21.6816 F   0  0  0  0  0  0  0  0  0  0  0  0
    4.5288  -62.7999  -23.7210 F   0  0  0  0  0  0  0  0  0  0  0  0
    4.8115  -61.3776  -22.0747 F   0  0  0  0  0  0  0  0  0  0  0  0
  1  2  2  0
  2  3  1  0
  3  4  2  0
  4  5  1  0
  4  6  1  0
  8  9  2  0
 10 11  1  0
 11 12  2  0
 12 13  1  0
 13 14  1  0
 14 15  1  0
 14 16  2  0
 13 17  2  0
 17 18  1  0
  6 19  1  0
 18 19  2  0
 11 19  1  0
  5 20  1  0
  1 21  1  0
  5 21  2  0
  6 22  2  0
  3 23  1  0
  7 23  1  0
 22 23  1  0
  7 24  2  0
  7 25  1  0
 25 26  2  0
  9 26  1  0
 26 27  1  0
  8 28  1  0
 25 29  1  0
 28 29  2  0
 29 30  1  0
 30 31  1  1
 30 32  1  0
 30 33  1  0
M  END
$$$$
