8AIE_M7L_B_301
     RDKit          3D

 23 23  0  0  0  0  0  0  0  0999 V2000
   20.7532  -11.5960   22.4221 C   0  0  0  0  0  0  0  0  0  0  0  0
   19.7899  -10.9994   24.4633 C   0  0  0  0  0  0  0  0  0  0  0  0
   20.3956  -10.3773   21.8564 C   0  0  0  0  0  0  0  0  0  0  0  0
   19.3546   -8.1163   22.0110 C   0  0  0  0  0  0  0  0  0  0  0  0
   19.7234   -9.4522   22.6065 C   0  0  0  0  0  0  0  0  0  0  0  0
   19.4195   -9.7672   23.9177 C   0  0  0  0  0  0  0  0  0  0  0  0
   19.4394  -11.2812   25.8851 C   0  0  0  0  0  0  0  0  0  0  0  0
   20.4502  -11.8853   23.6972 N   0  0  0  0  0  0  0  0  0  0  0  0
   18.7367   -8.8177   24.6689 O   0  0  0  0  0  0  0  0  0  0  0  0
   20.0339   -7.0824   22.7106 N   0  0  0  0  0  0  0  0  0  0  0  0
   20.7688  -10.1708   20.4373 C   0  0  0  0  0  0  0  0  0  0  0  0
   21.6812   -9.1215   20.3978 O   0  0  0  0  0  0  0  0  0  0  0  0
   22.0274   -8.7669   18.7861 P   0  0  1  0  0  0  0  0  0  0  0  0
   23.6792   -8.3433   18.6636 O   0  0  0  0  0  0  0  0  0  0  0  0
   21.7495   -9.9520   17.8738 O   0  0  0  0  0  0  0  0  0  0  0  0
   21.1005   -7.4688   18.2754 O   0  0  0  0  0  0  0  0  0  0  0  0
   19.9456   -5.8259   22.5793 C   0  0  0  0  0  0  0  0  0  0  0  0
   21.1827   -5.0926   22.2343 C   0  0  0  0  0  0  0  0  0  0  0  0
   18.7269   -5.0106   22.7366 C   0  0  0  0  0  0  0  0  0  0  0  0
   21.2102   -3.8447   22.1072 O   0  0  0  0  0  0  0  0  0  0  0  0
   22.3910   -5.7874   22.0348 O   0  0  0  0  0  0  0  0  0  0  0  0
   17.6035   -5.7544   23.0900 O   0  0  0  0  0  0  0  0  0  0  0  0
   17.2894   -5.6267   24.4011 N   0  0  0  0  0  0  0  0  0  0  0  0
  1  3  2  0
  3  5  1  0
  4  5  1  0
  2  6  1  0
  5  6  2  0
  2  7  1  0
  2  8  2  0
  1  8  1  0
  6  9  1  0
  4 10  1  0
  3 11  1  0
 11 12  1  0
 12 13  1  0
 13 14  1  1
 13 15  2  0
 13 16  1  0
 10 17  2  0
 17 18  1  0
 17 19  1  0
 18 20  2  0
 18 21  1  0
 19 22  1  0
 22 23  1  0
M  END
$$$$
