1VCJ_IBA_A_1
     RDKit          3D

 52 53  0  0  0  0  0  0  0  0999 V2000
   33.1939  -11.9563   64.5055 C   0  0  0  0  0  0  0  0  0  0  0  0
   31.9873  -11.4330   64.0241 C   0  0  0  0  0  0  0  0  0  0  0  0
   31.1357  -12.2344   63.2233 C   0  0  0  0  0  0  0  0  0  0  0  0
   31.5631  -13.5353   62.8850 C   0  0  0  0  0  0  0  0  0  0  0  0
   32.7927  -14.0418   63.3390 C   0  0  0  0  0  0  0  0  0  0  0  0
   33.5994  -13.2419   64.1587 C   0  0  0  0  0  0  0  0  0  0  0  0
   33.2223  -15.4098   62.9681 C   0  0  0  0  0  0  0  0  0  0  0  0
   34.2857  -16.0171   63.6315 O   0  0  0  0  0  0  0  0  0  0  0  0
   32.6298  -16.0383   62.0495 O   0  0  0  0  0  0  0  0  0  0  0  0
   29.8536  -11.7075   62.7951 N   0  0  0  0  0  0  0  0  0  0  0  0
   28.8703  -12.3104   61.8762 C   0  0  1  0  0  0  0  0  0  0  0  0
   28.6509  -11.4595   60.6046 C   0  0  2  0  0  0  0  0  0  0  0  0
   29.2072  -13.7898   61.5681 C   0  0  1  0  0  0  0  0  0  0  0  0
   28.5623   -9.9674   60.9194 C   0  0  1  0  0  0  0  0  0  0  0  0
   30.7057  -14.0765   61.6732 C   0  0  2  0  0  0  0  0  0  0  0  0
   31.5968  -10.1054   64.4143 N   0  0  0  0  0  0  0  0  0  0  0  0
   32.0825   -8.8324   63.8588 C   0  0  1  0  0  0  0  0  0  0  0  0
   31.2285   -7.7531   64.6042 C   0  0  2  0  0  0  0  0  0  0  0  0
   30.6357   -8.4219   65.8497 C   0  0  1  0  0  0  0  0  0  0  0  0
   30.8068   -9.8556   65.5628 C   0  0  0  0  0  0  0  0  0  0  0  0
   30.3232  -10.7730   66.2786 O   0  0  0  0  0  0  0  0  0  0  0  0
   33.5787   -8.6314   64.2081 C   0  0  2  0  0  0  0  0  0  0  0  0
   33.9046   -7.2674   64.2143 O   0  0  0  0  0  0  0  0  0  0  0  0
   31.8128   -8.7288   62.3230 C   0  0  2  0  0  0  0  0  0  0  0  0
   32.7769   -9.4452   61.4838 N   0  0  0  0  0  0  0  0  0  0  0  0
   33.8182  -11.3699   65.1664 H   0  0  0  0  0  0  0  0  0  0  0  0
   30.9519  -14.1735   62.2791 H   0  0  0  0  0  0  0  0  0  0  0  0
   34.5427  -13.6121   64.5406 H   0  0  0  0  0  0  0  0  0  0  0  0
   35.2141  -15.6124   63.6065 H   0  0  0  0  0  0  0  0  0  0  0  0
   29.5522  -10.7912   63.1945 H   0  0  0  0  0  0  0  0  0  0  0  0
   27.8940  -12.3082   62.4150 H   0  0  0  0  0  0  0  0  0  0  0  0
   27.6962  -11.7657   60.1257 H   0  0  0  0  0  0  0  0  0  0  0  0
   29.4514  -11.6158   59.8572 H   0  0  0  0  0  0  0  0  0  0  0  0
   28.6876  -14.4775   62.2646 H   0  0  0  0  0  0  0  0  0  0  0  0
   28.8821  -14.0392   60.5344 H   0  0  0  0  0  0  0  0  0  0  0  0
   28.9513   -9.3714   60.0691 H   0  0  0  0  0  0  0  0  0  0  0  0
   27.5013   -9.6853   61.0856 H   0  0  0  0  0  0  0  0  0  0  0  0
   29.1416   -9.7266   61.8360 H   0  0  0  0  0  0  0  0  0  0  0  0
   31.0758  -13.8366   62.6927 H   0  0  0  0  0  0  0  0  0  0  0  0
   31.2562  -13.4461   60.9432 H   0  0  0  0  0  0  0  0  0  0  0  0
   30.9162  -15.1427   61.4470 H   0  0  0  0  0  0  0  0  0  0  0  0
   30.3823   -7.4093   63.9677 H   0  0  0  0  0  0  0  0  0  0  0  0
   31.8137   -6.8514   64.8883 H   0  0  0  0  0  0  0  0  0  0  0  0
   31.2172   -8.1503   66.7567 H   0  0  0  0  0  0  0  0  0  0  0  0
   29.5622   -8.1660   65.9801 H   0  0  0  0  0  0  0  0  0  0  0  0
   34.2239   -9.1557   63.4715 H   0  0  0  0  0  0  0  0  0  0  0  0
   33.7873   -9.0678   65.2114 H   0  0  0  0  0  0  0  0  0  0  0  0
   34.8479   -7.2074   63.9119 H   0  0  0  0  0  0  0  0  0  0  0  0
   31.8252   -7.6585   62.0191 H   0  0  0  0  0  0  0  0  0  0  0  0
   30.7934   -9.1047   62.0973 H   0  0  0  0  0  0  0  0  0  0  0  0
   32.9782  -10.3904   61.8731 H   0  0  0  0  0  0  0  0  0  0  0  0
   33.6713   -8.9065   61.4399 H   0  0  0  0  0  0  0  0  0  0  0  0
  1  2  2  0
  2  3  1  0
  3  4  2  0
  4  5  1  0
  1  6  1  0
  5  6  2  0
  5  7  1  0
  7  8  1  0
  7  9  2  0
  3 10  1  0
 10 11  1  0
 11 12  1  0
 11 13  1  0
 12 14  1  0
 13 15  1  0
  2 16  1  0
 17 16  1  1
 17 18  1  0
 18 19  1  0
 16 20  1  0
 19 20  1  0
 20 21  2  0
 17 22  1  0
 22 23  1  0
 17 24  1  0
 24 25  1  0
  1 26  1  0
  4 27  1  0
  6 28  1  0
  8 29  1  0
 10 30  1  0
 11 31  1  1
 12 32  1  6
 12 33  1  0
 13 34  1  1
 13 35  1  0
 14 36  1  6
 14 37  1  0
 14 38  1  0
 15 39  1  1
 15 40  1  0
 15 41  1  0
 18 42  1  6
 18 43  1  0
 19 44  1  1
 19 45  1  0
 22 46  1  6
 22 47  1  0
 23 48  1  0
 24 49  1  6
 24 50  1  0
 25 51  1  0
 25 52  1  0
M  END
