7TM6_GPJ_A_502
     RDKit          3D

 10  9  0  0  0  0  0  0  0  0999 V2000
   -4.7350   -4.5524   20.6534 P   0  0  1  0  0  0  0  0  0  0  0  0
   -4.2214   -3.5534   19.6354 O   0  0  0  0  0  0  0  0  0  0  0  0
   -6.3971   -4.7168   20.4301 O   0  0  0  0  0  0  0  0  0  0  0  0
   -3.9975   -6.0628   20.4408 O   0  0  0  0  0  0  0  0  0  0  0  0
   -5.7192   -0.6000   25.6460 O   0  0  0  0  0  0  0  0  0  0  0  0
   -6.6423   -0.6397   23.5851 O   0  0  0  0  0  0  0  0  0  0  0  0
   -4.4235   -3.9276   22.3278 C   0  0  0  0  0  0  0  0  0  0  0  0
   -5.0811   -2.4155   24.0151 C   0  0  0  0  0  0  0  0  0  0  0  0
   -5.8345   -1.2043   24.3949 C   0  0  0  0  0  0  0  0  0  0  0  0
   -5.3277   -2.8485   22.6565 N   0  0  0  0  0  0  0  0  0  0  0  0
  1  2  2  0
  1  3  1  6
  1  4  1  0
  1  7  1  0
  5  9  1  0
  6  9  2  0
  8  9  1  0
  7 10  1  0
  8 10  1  0
M  CHG  1  10   1
M  END
$$$$
