7L00_XCJ_A_402
     RDKit          3D

 27 30  0  0  0  0  0  0  0  0999 V2000
  -19.6839   29.1590   31.4795 C   0  0  0  0  0  0  0  0  0  0  0  0
  -20.0909   29.4415   34.3172 C   0  0  0  0  0  0  0  0  0  0  0  0
  -20.7793   30.6590   34.3976 C   0  0  0  0  0  0  0  0  0  0  0  0
  -20.5872   31.4907   35.4921 C   0  0  0  0  0  0  0  0  0  0  0  0
  -19.7441   31.2017   36.5396 C   0  0  0  0  0  0  0  0  0  0  0  0
  -19.0611   29.9851   36.4515 C   0  0  0  0  0  0  0  0  0  0  0  0
  -19.2514   29.1762   35.3818 C   0  0  0  0  0  0  0  0  0  0  0  0
  -20.3116   33.1528   37.5091 C   0  0  0  0  0  0  0  0  0  0  0  0
  -21.1622   35.4138   37.9712 C   0  0  0  0  0  0  0  0  0  0  0  0
  -21.1388   36.6448   38.8111 C   0  0  0  0  0  0  0  0  0  0  0  0
  -21.8037   37.7843   38.1276 C   0  0  0  0  0  0  0  0  0  0  0  0
  -21.1001   38.7381   37.4260 C   0  0  0  0  0  0  0  0  0  0  0  0
  -23.7120   38.8580   37.6153 C   0  0  0  0  0  0  0  0  0  0  0  0
  -25.5141   40.3924   36.7923 C   0  0  0  0  0  0  0  0  0  0  0  0
  -26.8888   40.4162   36.9161 C   0  0  0  0  0  0  0  0  0  0  0  0
  -27.2921   39.3324   37.6672 C   0  0  0  0  0  0  0  0  0  0  0  0
  -26.1436   38.6452   38.0012 C   0  0  0  0  0  0  0  0  0  0  0  0
  -19.7021   32.1137   37.4750 N   0  0  0  0  0  0  0  0  0  0  0  0
  -20.4356   34.2905   38.3994 N   0  0  0  0  0  0  0  0  0  0  0  0
  -25.1171   39.3010   37.4674 N   0  0  0  0  0  0  0  0  0  0  0  0
  -23.1017   38.0061   38.1146 N   0  0  0  0  0  0  0  0  0  0  0  0
  -21.8471   35.4508   36.9017 O   0  0  0  0  0  0  0  0  0  0  0  0
  -19.6565   27.0734   33.1151 O   0  0  0  0  0  0  0  0  0  0  0  0
  -21.7840   28.1373   32.7358 O   0  0  0  0  0  0  0  0  0  0  0  0
  -20.3164   28.3921   32.9627 S   0  0  2  0  0  0  0  0  0  0  0  0
  -21.2646   33.0730   35.9375 S   0  0  0  0  0  0  0  0  0  0  0  0
  -22.3961   39.9052   36.7891 S   0  0  0  0  0  0  0  0  0  0  0  0
  2  3  2  0
  3  4  1  0
  4  5  2  0
  5  6  1  0
  2  7  1  0
  6  7  2  0
  9 10  1  0
 10 11  1  0
 11 12  2  0
 14 15  2  0
 15 16  1  0
 16 17  2  0
  8 18  2  0
  5 18  1  0
  9 19  1  0
  8 19  1  0
 14 20  1  0
 17 20  1  0
 13 20  1  0
 13 21  2  0
 11 21  1  0
  9 22  2  0
 25  1  1  6
  2 25  1  0
 23 25  2  0
 24 25  2  0
  8 26  1  0
  4 26  1  0
 13 27  1  0
 12 27  1  0
M  END
$$$$
