1T40_ID5_A_320
     RDKit          3D

 28 30  0  0  0  0  0  0  0  0999 V2000
   13.4883   -3.2776   18.0949 C   0  0  0  0  0  0  0  0  0  0  0  0
   13.3928   -4.9360   15.7764 C   0  0  0  0  0  0  0  0  0  0  0  0
   13.4945   -4.7028   18.2284 C   0  0  0  0  0  0  0  0  0  0  0  0
   13.4368   -2.6964   16.8083 C   0  0  0  0  0  0  0  0  0  0  0  0
   13.3883   -3.5221   15.6339 C   0  0  0  0  0  0  0  0  0  0  0  0
   13.4457   -5.5564   17.0645 C   0  0  0  0  0  0  0  0  0  0  0  0
   20.0131  -11.0529   14.2502 F   0  0  0  0  0  0  0  0  0  0  0  0
   13.4333   -1.3460   16.7196 F   0  0  0  0  0  0  0  0  0  0  0  0
   13.4491   -7.0588   17.1186 C   0  0  0  0  0  0  0  0  0  0  0  0
   15.6951   -9.0357   17.7711 C   0  0  0  0  0  0  0  0  0  0  0  0
   19.9573   -7.2341   17.1692 F   0  0  0  0  0  0  0  0  0  0  0  0
   13.5470   -5.3692   19.4620 O   0  0  0  0  0  0  0  0  0  0  0  0
   13.2172   -7.7404   16.1003 O   0  0  0  0  0  0  0  0  0  0  0  0
   14.3502   -8.9510   18.4556 C   0  0  0  0  0  0  0  0  0  0  0  0
   13.6610   -4.6127   20.6740 C   0  0  0  0  0  0  0  0  0  0  0  0
   16.0145   -9.9873   16.9027 N   0  0  0  0  0  0  0  0  0  0  0  0
   16.9235   -7.8594   18.0965 S   0  0  0  0  0  0  0  0  0  0  0  0
   17.4102  -11.6875   14.9707 F   0  0  0  0  0  0  0  0  0  0  0  0
   17.9812   -8.6230   17.0283 C   0  0  0  0  0  0  0  0  0  0  0  0
   19.3486  -10.2818   15.1409 C   0  0  0  0  0  0  0  0  0  0  0  0
   17.3214   -9.7857   16.4522 C   0  0  0  0  0  0  0  0  0  0  0  0
   19.3277   -8.3135   16.6427 C   0  0  0  0  0  0  0  0  0  0  0  0
   20.0056   -9.1353   15.7064 C   0  0  0  0  0  0  0  0  0  0  0  0
   18.0065  -10.6192   15.5044 C   0  0  0  0  0  0  0  0  0  0  0  0
   15.0160   -4.8919   21.2971 C   0  0  0  0  0  0  0  0  0  0  0  0
   15.8540   -5.7669   21.0643 O   0  0  0  0  0  0  0  0  0  0  0  0
   15.2989   -3.9942   22.2635 O   0  0  0  0  0  0  0  0  0  0  0  0
   13.7170   -7.6622   18.3493 N   0  0  0  0  0  0  0  0  0  0  0  0
  1  3  2  0
  1  4  1  0
  2  5  1  0
  4  5  2  0
  2  6  2  0
  3  6  1  0
  4  8  1  0
  6  9  1  0
  3 12  1  0
  9 13  2  0
 10 14  1  0
 12 15  1  0
 10 16  2  0
 10 17  1  0
 17 19  1  0
  7 20  1  0
 16 21  1  0
 19 21  2  0
 11 22  1  0
 19 22  1  0
 20 23  1  0
 22 23  2  0
 18 24  1  0
 20 24  2  0
 21 24  1  0
 15 25  1  0
 25 26  1  0
 25 27  2  0
  9 28  1  0
 14 28  1  0
M  END
