7JR8_VH7_B_203
     RDKit          3D

 28 31  0  0  0  0  0  0  0  0999 V2000
    3.5230  -17.1669   70.4419 C   0  0  0  0  0  0  0  0  0  0  0  0
    3.6483  -18.6439   70.7258 C   0  0  1  0  0  0  0  0  0  0  0  0
    4.8121  -18.9338   71.6298 C   0  0  0  0  0  0  0  0  0  0  0  0
    7.2278  -18.0093   68.8594 C   0  0  0  0  0  0  0  0  0  0  0  0
    7.2416  -16.9678   69.9325 C   0  0  1  0  0  0  0  0  0  0  0  0
    7.4103  -15.6162   69.2306 C   0  0  0  0  0  0  0  0  0  0  0  0
    5.9319  -16.8590   70.6916 C   0  0  1  0  0  0  0  0  0  0  0  0
    4.8133  -16.8018   69.7129 C   0  0  0  0  0  0  0  0  0  0  0  0
    5.7907  -17.8359   71.8055 C   0  0  0  0  0  0  0  0  0  0  0  0
    1.1818  -18.6566   70.7730 C   0  0  0  0  0  0  0  0  0  0  0  0
   -0.0984  -19.0962   71.3110 C   0  0  0  0  0  0  0  0  0  0  0  0
   -1.3146  -18.7304   70.7770 C   0  0  0  0  0  0  0  0  0  0  0  0
   -2.4685  -19.2003   71.3604 C   0  0  0  0  0  0  0  0  0  0  0  0
   -2.4697  -20.0257   72.4615 C   0  0  0  0  0  0  0  0  0  0  0  0
   -2.7931  -21.3396   74.2023 C   0  0  0  0  0  0  0  0  0  0  0  0
   -1.4328  -21.1748   74.0337 C   0  0  0  0  0  0  0  0  0  0  0  0
   -0.1243  -19.9232   72.4134 C   0  0  0  0  0  0  0  0  0  0  0  0
   -3.3986  -22.1498   75.2602 C   0  0  0  0  0  0  0  0  0  0  0  0
   -4.7617  -22.1738   75.4614 C   0  0  0  0  0  0  0  0  0  0  0  0
   -5.3628  -22.9213   76.4430 C   0  0  0  0  0  0  0  0  0  0  0  0
   -4.5754  -23.6936   77.2792 C   0  0  0  0  0  0  0  0  0  0  0  0
   -3.2110  -23.6695   77.0777 C   0  0  0  0  0  0  0  0  0  0  0  0
   -2.6044  -22.9182   76.0909 C   0  0  0  0  0  0  0  0  0  0  0  0
    2.4109  -19.1692   71.2277 N   0  0  0  0  0  0  0  0  0  0  0  0
   -3.3956  -20.6281   73.2303 N   0  0  0  0  0  0  0  0  0  0  0  0
   -1.2726  -20.3707   72.9670 N   0  0  0  0  0  0  0  0  0  0  0  0
    8.3256  -17.1748   70.7580 O   0  0  0  0  0  0  0  0  0  0  0  0
    1.2248  -17.7800   69.8592 O   0  0  0  0  0  0  0  0  0  0  0  0
  1  2  1  0
  2  3  1  0
  5  4  1  6
  5  6  1  0
  7  5  1  0
  1  8  1  0
  7  8  1  6
  3  9  1  0
  7  9  1  0
 10 11  1  0
 11 12  1  0
 12 13  2  0
 13 14  1  0
 15 16  2  0
 11 17  2  0
 15 18  1  0
 18 19  2  0
 19 20  1  0
 20 21  2  0
 21 22  1  0
 22 23  2  0
 18 23  1  0
 10 24  1  0
  2 24  1  1
 15 25  1  0
 14 25  2  0
 16 26  1  0
 14 26  1  0
 17 26  1  0
  5 27  1  0
 10 28  2  0
M  END
$$$$
