7A9E_R4W_A_405
     RDKit          3D

 14 13  0  0  0  0  0  0  0  0999 V2000
   12.2731   42.9434    3.7433 C   0  0  2  0  0  0  0  0  0  0  0  0
   12.7782   38.7600    3.1280 C   0  0  1  0  0  0  0  0  0  0  0  0
   10.8288   40.4515    2.4041 O   0  0  0  0  0  0  0  0  0  0  0  0
   12.6669   41.5080    4.0683 C   0  0  2  0  0  0  0  0  0  0  0  0
   13.0665   40.8571    1.4835 O   0  0  0  0  0  0  0  0  0  0  0  0
   12.3018   40.4195    2.7010 S   0  0  1  0  0  6  0  0  0  0  0  0
   12.8364   43.3065    2.8578 H   0  0  0  0  0  0  0  0  0  0  0  0
   12.5102   43.5980    4.6081 H   0  0  0  0  0  0  0  0  0  0  0  0
   11.1834   43.0069    3.5379 H   0  0  0  0  0  0  0  0  0  0  0  0
   12.5534   38.0792    2.2813 H   0  0  0  0  0  0  0  0  0  0  0  0
   13.8657   38.7304    3.3457 H   0  0  0  0  0  0  0  0  0  0  0  0
   12.2143   38.4310    4.0251 H   0  0  0  0  0  0  0  0  0  0  0  0
   12.1086   41.1644    4.9647 H   0  0  0  0  0  0  0  0  0  0  0  0
   13.7546   41.4627    4.2875 H   0  0  0  0  0  0  0  0  0  0  0  0
  1  4  1  0
  3  6  2  0
  6  4  1  1
  2  6  1  0
  5  6  2  0
  1  7  1  6
  1  8  1  0
  1  9  1  0
  2 10  1  6
  2 11  1  0
  2 12  1  0
  4 13  1  1
  4 14  1  0
M  END
