7KB1_WBJ_A_501
     RDKit          3D

 22 22  0  0  0  0  0  0  0  0999 V2000
   -3.2337  -22.0280   37.4107 C   0  0  0  0  0  0  0  0  0  0  0  0
   -4.4073  -25.6225   33.1251 C   0  0  0  0  0  0  0  0  0  0  0  0
   -9.1435  -24.2035   33.7095 C   0  0  0  0  0  0  0  0  0  0  0  0
   -8.5536  -20.4856   34.0863 C   0  0  0  0  0  0  0  0  0  0  0  0
   -9.1006  -21.6355   33.8070 C   0  0  0  0  0  0  0  0  0  0  0  0
   -8.4792  -22.9340   33.9383 C   0  0  0  0  0  0  0  0  0  0  0  0
   -6.5507  -24.2844   34.3668 C   0  0  0  0  0  0  0  0  0  0  0  0
   -5.1506  -24.0244   34.8577 C   0  0  0  0  0  0  0  0  0  0  0  0
   -4.8845  -23.1641   35.8811 C   0  0  0  0  0  0  0  0  0  0  0  0
   -3.5670  -22.9537   36.3033 C   0  0  0  0  0  0  0  0  0  0  0  0
   -2.8126  -24.4528   34.6875 C   0  0  0  0  0  0  0  0  0  0  0  0
   -4.0978  -24.6914   34.2373 C   0  0  0  0  0  0  0  0  0  0  0  0
   -7.2166  -23.0008   34.2899 N   0  0  0  0  0  0  0  0  0  0  0  0
   -2.5482  -23.6026   35.6990 N   0  0  0  0  0  0  0  0  0  0  0  0
   -5.9304  -22.4872   36.5144 O   0  0  0  0  0  0  0  0  0  0  0  0
   -3.6396  -25.3988   31.9871 O   0  0  0  0  0  0  0  0  0  0  0  0
   -4.2033  -25.1996   29.2511 O   0  0  0  0  0  0  0  0  0  0  0  0
   -5.8399  -26.7460   30.8990 O   0  0  0  0  0  0  0  0  0  0  0  0
   -3.3868  -27.3825   30.3779 O   0  0  0  0  0  0  0  0  0  0  0  0
   -8.6949  -25.4211   34.1942 O   0  0  0  0  0  0  0  0  0  0  0  0
  -10.2178  -24.2579   33.0219 O   0  0  0  0  0  0  0  0  0  0  0  0
   -4.2609  -26.1578   30.6314 P   0  0  2  0  0  5  0  0  0  0  0  0
  4  5  2  0
  5  6  1  0
  3  6  1  0
  7  8  1  0
  8  9  2  0
  1 10  1  6
  9 10  1  0
 11 12  2  0
  2 12  1  0
  8 12  1  0
  7 13  1  1
  6 13  2  0
 11 14  1  0
 10 14  2  0
  9 15  1  0
  2 16  1  1
  3 20  1  0
  3 21  2  0
 19 22  2  0
 16 22  1  0
 22 17  1  6
 18 22  1  0
M  END
$$$$
