
     RDKit          3D

 36 39  0  0  0  0  0  0  0  0999 V2000
   19.7741   27.6256  -49.4450 N   0  0  0  0  0  0  0  0  0  0  0  0
   20.1195   27.2320  -50.6894 C   0  0  0  0  0  0  0  0  0  0  0  0
   19.7234   26.1325  -51.3623 N   0  0  0  0  0  0  0  0  0  0  0  0
   18.8792   25.3933  -50.6218 C   0  0  0  0  0  0  0  0  0  0  0  0
   18.4413   25.6668  -49.3368 C   0  0  0  0  0  0  0  0  0  0  0  0
   18.9105   26.8532  -48.7474 C   0  0  0  0  0  0  0  0  0  0  0  0
   18.5504   27.2603  -47.4713 N   0  0  0  0  0  0  0  0  0  0  0  0
   17.6133   24.6645  -48.8778 N   0  0  0  0  0  0  0  0  0  0  0  0
   17.5452   23.8056  -49.8732 C   0  0  0  0  0  0  0  0  0  0  0  0
   18.2603   24.2186  -50.9663 N   0  0  0  0  0  0  0  0  0  0  0  0
   18.3874   23.5736  -52.2554 C   0  0  1  0  0  0  0  0  0  0  0  0
   18.6786   22.0674  -52.2603 C   0  0  2  0  0  0  0  0  0  0  0  0
   20.0576   21.7535  -52.1295 O   0  0  0  0  0  0  0  0  0  0  0  0
   18.1298   21.6615  -53.6170 C   0  0  2  0  0  0  0  0  0  0  0  0
   19.1101   22.0193  -54.6016 O   0  0  0  0  0  0  0  0  0  0  0  0
   17.1347   23.7288  -52.9577 O   0  0  0  0  0  0  0  0  0  0  0  0
   16.8808   22.5344  -53.7227 C   0  0  2  0  0  0  0  0  0  0  0  0
   15.6264   21.8715  -53.1528 C   0  0  0  0  0  0  0  0  0  0  0  0
   15.8017   21.6103  -51.7713 O   0  0  0  0  0  0  0  0  0  0  0  0
   15.3671   20.1574  -51.2473 P   0  0  2  0  0  5  0  0  0  0  0  0
   15.4706   19.9972  -49.7652 O   0  0  0  0  0  0  0  0  0  0  0  0
   16.3709   19.1803  -52.0187 O   0  0  0  0  0  0  0  0  0  0  0  0
   13.9399   19.8650  -51.8649 O   0  0  0  0  0  0  0  0  0  0  0  0
   12.5499   20.2450  -51.2113 P   0  0  1  0  0  5  0  0  0  0  0  0
   12.5870   21.0386  -49.9470 O   0  0  0  0  0  0  0  0  0  0  0  0
   11.7212   20.9480  -52.3845 O   0  0  0  0  0  0  0  0  0  0  0  0
   11.7815   18.8373  -51.0815 O   0  0  0  0  0  0  0  0  0  0  0  0
   11.3504   18.2312  -52.2935 C   0  0  0  0  0  0  0  0  0  0  0  0
   11.7439   15.9919  -51.4925 O   0  0  0  0  0  0  0  0  0  0  0  0
   10.8828   14.2431  -50.2412 O   0  0  0  0  0  0  0  0  0  0  0  0
   11.3667   15.5799  -50.1851 C   0  0  2  0  0  0  0  0  0  0  0  0
    9.3268   15.8500  -48.8262 O   0  0  0  0  0  0  0  0  0  0  0  0
   10.2465   16.5022  -49.7056 C   0  0  2  0  0  0  0  0  0  0  0  0
    8.5532   15.9846  -51.3628 O   0  0  0  0  0  0  0  0  0  0  0  0
    9.5785   16.9195  -51.0024 C   0  0  2  0  0  0  0  0  0  0  0  0
   10.7176   16.8656  -52.0210 C   0  0  1  0  0  0  0  0  0  0  0  0
  1  2  4  0
  2  3  4  0
  3  4  4  0
  4  5  4  0
  1  6  4  0
  5  6  4  0
  6  7  1  0
  5  8  4  0
  8  9  4  0
  4 10  4  0
  9 10  4  0
 11 10  1  1
 11 12  1  0
 12 13  1  6
 12 14  1  0
 14 15  1  6
 11 16  1  0
 14 17  1  0
 16 17  1  0
 17 18  1  1
 18 19  1  0
 20 19  1  0
 20 21  2  0
 20 22  1  6
 20 23  1  0
 24 23  1  0
 24 25  2  0
 24 26  1  6
 24 27  1  0
 27 28  1  0
 29 31  1  0
 31 30  1  6
 31 33  1  0
 33 32  1  1
 33 35  1  0
 35 34  1  6
 36 28  1  1
 29 36  1  0
 35 36  1  0
M  END
