@<TRIPOS>MOLECULE
1TOW_CRZ_A_501
 34 36 0 0 0
SMALL
GASTEIGER

@<TRIPOS>ATOM
      1 O          17.4080    7.2290    2.0020 O.3     1  UNL1       -0.4806
      2 C          17.9280    6.4240    2.7610 C.2     1  UNL1        0.3048
      3 O          17.1920    5.4060    3.1960 O.2     1  UNL1       -0.2510
      4 C          19.3710    6.5730    3.1920 C.3     1  UNL1        0.0464
      5 C          19.8380    5.4040    4.0810 C.3     1  UNL1       -0.0249
      6 C          20.1330    4.1170    3.2890 C.3     1  UNL1        0.0244
      7 N          21.0330    4.3350    2.1460 N.ar    1  UNL1       -0.3398
      8 C          20.6150    4.5170    0.8490 C.ar    1  UNL1        0.0501
      9 C          19.3820    4.6100    0.2010 C.ar    1  UNL1       -0.0376
     10 C          21.8270    4.6580    0.0110 C.ar    1  UNL1        0.0076
     11 C          21.7870    4.8620   -1.3620 C.ar    1  UNL1       -0.0520
     12 C          20.5190    4.9520   -1.9530 C.ar    1  UNL1       -0.0611
     13 C          19.3480    4.8220   -1.1880 C.ar    1  UNL1       -0.0598
     14 C          22.9600    4.5250    0.9060 C.ar    1  UNL1        0.0076
     15 C          22.3980    4.3210    2.2560 C.ar    1  UNL1        0.0501
     16 C          23.3060    4.1740    3.3110 C.ar    1  UNL1       -0.0376
     17 C          24.3290    4.5700    0.6410 C.ar    1  UNL1       -0.0520
     18 C          25.1830    4.4050    1.7380 C.ar    1  UNL1       -0.0611
     19 C          24.6770    4.2150    3.0320 C.ar    1  UNL1       -0.0598
     20 H          17.9030    7.9563    1.6796 H       1  UNL1        0.2951
     21 H          19.4739    7.4856    3.7410 H       1  UNL1        0.0378
     22 H          19.9777    6.5775    2.3107 H       1  UNL1        0.0378
     23 H          19.0708    5.1941    4.7967 H       1  UNL1        0.0288
     24 H          20.7525    5.7060    4.5472 H       1  UNL1        0.0288
     25 H          19.2079    3.7228    2.9234 H       1  UNL1        0.0492
     26 H          20.6230    3.4382    3.9553 H       1  UNL1        0.0492
     27 H          18.5041    4.5239    0.7366 H       1  UNL1        0.0638
     28 H          22.6505    4.9436   -1.9212 H       1  UNL1        0.0624
     29 H          20.4444    5.1168   -2.9690 H       1  UNL1        0.0618
     30 H          18.4330    4.8842   -1.6613 H       1  UNL1        0.0618
     31 H          22.9706    4.0378    4.2774 H       1  UNL1        0.0638
     32 H          24.6930    4.7172   -0.3134 H       1  UNL1        0.0624
     33 H          26.2044    4.4235    1.5916 H       1  UNL1        0.0618
     34 H          25.3436    4.1006    3.8115 H       1  UNL1        0.0618
@<TRIPOS>BOND
     1     1     2    1
     2     2     3    2
     3     2     4    1
     4     4     5    1
     5     5     6    1
     6     6     7    1
     7     7     8   ar
     8     8     9   ar
     9     8    10   ar
    10    10    11   ar
    11    11    12   ar
    12     9    13   ar
    13    12    13   ar
    14    10    14   ar
    15     7    15   ar
    16    14    15   ar
    17    15    16   ar
    18    14    17   ar
    19    17    18   ar
    20    16    19   ar
    21    18    19   ar
    22     1    20    1
    23     4    21    1
    24     4    22    1
    25     5    23    1
    26     5    24    1
    27     6    25    1
    28     6    26    1
    29     9    27    1
    30    11    28    1
    31    12    29    1
    32    13    30    1
    33    16    31    1
    34    17    32    1
    35    18    33    1
    36    19    34    1
