1TOW_CRZ_A_501
     RDKit          3D

 34 36  0  0  0  0  0  0  0  0999 V2000
   -1.3820    1.9365   -0.4568 O   0  0  0  0  0  0  0  0  0  0  0  0
   -1.5007    1.4224    0.8313 C   0  0  0  0  0  0  0  0  0  0  0  0
   -2.4757    0.6784    1.1203 O   0  0  0  0  0  0  0  0  0  0  0  0
   -0.5052    1.7952    1.8903 C   0  0  0  0  0  0  0  0  0  0  0  0
    0.9491    1.7166    1.3957 C   0  0  0  0  0  0  0  0  0  0  0  0
    1.5103    0.2858    1.3474 C   0  0  0  0  0  0  0  0  0  0  0  0
    0.8249   -0.5368    0.3434 N   0  0  0  0  0  0  0  0  0  0  0  0
    0.9712   -0.4721   -1.0048 C   0  0  0  0  0  0  0  0  0  0  0  0
    1.8226    0.3604   -1.7386 C   0  0  0  0  0  0  0  0  0  0  0  0
    0.1360   -1.3692   -1.6407 C   0  0  0  0  0  0  0  0  0  0  0  0
    0.0915   -1.4867   -3.0286 C   0  0  0  0  0  0  0  0  0  0  0  0
    0.9377   -0.6556   -3.7828 C   0  0  0  0  0  0  0  0  0  0  0  0
    1.7986    0.2616   -3.1417 C   0  0  0  0  0  0  0  0  0  0  0  0
   -0.5574   -2.0233   -0.6488 C   0  0  0  0  0  0  0  0  0  0  0  0
   -0.1151   -1.4965    0.5499 C   0  0  0  0  0  0  0  0  0  0  0  0
   -0.6450   -1.9424    1.7667 C   0  0  0  0  0  0  0  0  0  0  0  0
   -1.5358   -3.0136   -0.7097 C   0  0  0  0  0  0  0  0  0  0  0  0
   -2.0757   -3.4754    0.5026 C   0  0  0  0  0  0  0  0  0  0  0  0
   -1.6337   -2.9425    1.7326 C   0  0  0  0  0  0  0  0  0  0  0  0
   -2.0510    1.6925   -1.1772 H   0  0  0  0  0  0  0  0  0  0  0  0
   -0.7189    2.8404    2.1998 H   0  0  0  0  0  0  0  0  0  0  0  0
   -0.6357    1.1500    2.7865 H   0  0  0  0  0  0  0  0  0  0  0  0
    1.5800    2.2974    2.1031 H   0  0  0  0  0  0  0  0  0  0  0  0
    1.0523    2.2078    0.4048 H   0  0  0  0  0  0  0  0  0  0  0  0
    2.5919    0.3344    1.0975 H   0  0  0  0  0  0  0  0  0  0  0  0
    1.4471   -0.1789    2.3526 H   0  0  0  0  0  0  0  0  0  0  0  0
    2.4862    1.0624   -1.2522 H   0  0  0  0  0  0  0  0  0  0  0  0
   -0.5710   -2.1920   -3.5132 H   0  0  0  0  0  0  0  0  0  0  0  0
    0.9297   -0.7200   -4.8631 H   0  0  0  0  0  0  0  0  0  0  0  0
    2.4461    0.8942   -3.7347 H   0  0  0  0  0  0  0  0  0  0  0  0
   -0.3234   -1.5346    2.7143 H   0  0  0  0  0  0  0  0  0  0  0  0
   -1.8738   -3.4139   -1.6567 H   0  0  0  0  0  0  0  0  0  0  0  0
   -2.8384   -4.2431    0.4927 H   0  0  0  0  0  0  0  0  0  0  0  0
   -2.0620   -3.3043    2.6583 H   0  0  0  0  0  0  0  0  0  0  0  0
  1  2  1  0
  2  3  2  0
  2  4  1  0
  4  5  1  0
  5  6  1  0
  6  7  1  0
  7  8  1  0
  8  9  2  0
  8 10  1  0
 10 11  2  0
 11 12  1  0
  9 13  1  0
 12 13  2  0
 10 14  1  0
  7 15  1  0
 14 15  2  0
 15 16  1  0
 14 17  1  0
 17 18  2  0
 16 19  2  0
 18 19  1  0
  1 20  1  0
  4 21  1  0
  4 22  1  0
  5 23  1  0
  5 24  1  0
  6 25  1  0
  6 26  1  0
  9 27  1  0
 11 28  1  0
 12 29  1  0
 13 30  1  0
 16 31  1  0
 17 32  1  0
 18 33  1  0
 19 34  1  0
M  END
