1XOQ_ROF_B_501
     RDKit          3D

 40 42  0  0  0  0  0  0  0  0999 V2000
   16.8848   24.8889   72.9807 O   0  0  0  0  0  0  0  0  0  0  0  0
   19.5780   23.5177   81.3446 C   0  0  1  0  0  0  0  0  0  0  0  0
   20.2792   24.8541   81.1495 C   0  0  1  0  0  0  0  0  0  0  0  0
   20.4342   23.7545   80.1103 C   0  0  2  0  0  0  0  0  0  0  0  0
   17.1826   24.8963   74.2070 C   0  0  0  0  0  0  0  0  0  0  0  0
   18.5710   24.5839   74.6233 C   0  0  0  0  0  0  0  0  0  0  0  0
   19.5811   24.4476   73.6584 C   0  0  0  0  0  0  0  0  0  0  0  0
   20.8905   24.1494   74.0381 C   0  0  0  0  0  0  0  0  0  0  0  0
   21.2167   23.9726   75.3951 C   0  0  0  0  0  0  0  0  0  0  0  0
   22.5227   23.6748   75.8180 O   0  0  0  0  0  0  0  0  0  0  0  0
   23.6333   23.4680   74.9498 C   0  0  1  0  0  0  0  0  0  0  0  0
   24.7784   23.3231   75.7086 F   0  0  0  0  0  0  0  0  0  0  0  0
   23.4411   22.3198   74.2028 F   0  0  0  0  0  0  0  0  0  0  0  0
   20.2144   24.0950   76.3686 C   0  0  0  0  0  0  0  0  0  0  0  0
   20.5693   23.9065   77.7140 O   0  0  0  0  0  0  0  0  0  0  0  0
   19.6602   23.9697   78.8090 C   0  0  1  0  0  0  0  0  0  0  0  0
   18.8946   24.3965   75.9783 C   0  0  0  0  0  0  0  0  0  0  0  0
   16.1784   25.2333   75.1777 N   0  0  0  0  0  0  0  0  0  0  0  0
   14.8712   25.6898   74.7986 C   0  0  0  0  0  0  0  0  0  0  0  0
   13.8682   24.7770   74.4163 C   0  0  0  0  0  0  0  0  0  0  0  0
   14.1365   23.0383   74.4421 Cl  0  0  0  0  0  0  0  0  0  0  0  0
   12.6052   25.2592   74.0598 C   0  0  0  0  0  0  0  0  0  0  0  0
   12.3463   26.5922   74.0934 N   0  0  0  0  0  0  0  0  0  0  0  0
   13.2893   27.4931   74.4731 C   0  0  0  0  0  0  0  0  0  0  0  0
   14.5671   27.0620   74.8401 C   0  0  0  0  0  0  0  0  0  0  0  0
   15.7722   28.2538   75.3096 Cl  0  0  0  0  0  0  0  0  0  0  0  0
   20.0495   22.8718   82.1151 H   0  0  0  0  0  0  0  0  0  0  0  0
   18.4775   23.5597   81.1966 H   0  0  0  0  0  0  0  0  0  0  0  0
   19.5959   25.6889   80.8834 H   0  0  0  0  0  0  0  0  0  0  0  0
   21.1653   24.9967   81.8034 H   0  0  0  0  0  0  0  0  0  0  0  0
   21.4163   23.2352   80.1001 H   0  0  0  0  0  0  0  0  0  0  0  0
   19.3608   24.5827   72.6065 H   0  0  0  0  0  0  0  0  0  0  0  0
   21.6422   24.0607   73.2663 H   0  0  0  0  0  0  0  0  0  0  0  0
   23.7620   24.3415   74.2764 H   0  0  0  0  0  0  0  0  0  0  0  0
   18.9074   23.1585   78.7141 H   0  0  0  0  0  0  0  0  0  0  0  0
   19.1357   24.9513   78.8003 H   0  0  0  0  0  0  0  0  0  0  0  0
   18.1167   24.4627   76.7251 H   0  0  0  0  0  0  0  0  0  0  0  0
   16.4618   25.3355   76.1779 H   0  0  0  0  0  0  0  0  0  0  0  0
   11.8225   24.5722   73.7660 H   0  0  0  0  0  0  0  0  0  0  0  0
   13.0439   28.5469   74.4883 H   0  0  0  0  0  0  0  0  0  0  0  0
  2  3  1  0
  2  4  1  0
  3  4  1  0
  1  5  2  0
  5  6  1  0
  6  7  2  0
  7  8  1  0
  8  9  2  0
  9 10  1  0
 10 11  1  0
 11 12  1  0
 11 13  1  0
  9 14  1  0
 14 15  1  0
  4 16  1  0
 15 16  1  0
  6 17  1  0
 14 17  2  0
  5 18  1  0
 18 19  1  0
 19 20  2  0
 20 21  1  0
 20 22  1  0
 22 23  2  0
 23 24  1  0
 19 25  1  0
 24 25  2  0
 25 26  1  0
  2 27  1  1
  2 28  1  0
  3 29  1  6
  3 30  1  0
  4 31  1  6
  7 32  1  0
  8 33  1  0
 11 34  1  6
 16 35  1  6
 16 36  1  0
 17 37  1  0
 18 38  1  0
 22 39  1  0
 24 40  1  0
M  END
