7XRL_FWK_A_605
     RDKit          3D

 19 21  0  0  0  0  0  0  0  0999 V2000
   -9.4079   17.0950   -4.3043 C   0  0  0  0  0  0  0  0  0  0  0  0
   -8.2700   17.4796   -5.2059 C   0  0  1  0  0  0  0  0  0  0  0  0
   -7.6040   18.6384   -4.7407 O   0  0  0  0  0  0  0  0  0  0  0  0
   -7.1208   16.4920   -5.1402 C   0  0  1  0  0  0  0  0  0  0  0  0
   -7.4055   15.3122   -5.8098 O   0  0  0  0  0  0  0  0  0  0  0  0
   -6.0333   17.3024   -5.8186 C   0  0  1  0  0  0  0  0  0  0  0  0
   -6.0236   16.9789   -7.1598 O   0  0  0  0  0  0  0  0  0  0  0  0
   -6.5587   18.7269   -5.6386 C   0  0  2  0  0  0  0  0  0  0  0  0
   -5.4583   19.5194   -5.1455 N   0  0  0  0  0  0  0  0  0  0  0  0
   -5.0363   19.4861   -3.8742 C   0  0  0  0  0  0  0  0  0  0  0  0
   -3.9982   20.3278   -3.7111 N   0  0  0  0  0  0  0  0  0  0  0  0
   -3.7681   20.8949   -4.8963 C   0  0  0  0  0  0  0  0  0  0  0  0
   -4.6755   20.3960   -5.7992 C   0  0  0  0  0  0  0  0  0  0  0  0
   -4.6575   20.8060   -7.0653 N   0  0  0  0  0  0  0  0  0  0  0  0
   -3.7325   21.7141   -7.4274 C   0  0  0  0  0  0  0  0  0  0  0  0
   -2.8267   22.2200   -6.5517 N   0  0  0  0  0  0  0  0  0  0  0  0
   -2.8030   21.8380   -5.2600 C   0  0  0  0  0  0  0  0  0  0  0  0
   -1.8673   22.3481   -4.3154 N   0  0  0  0  0  0  0  0  0  0  0  0
  -10.1493   18.3516   -3.9231 C   0  0  0  0  0  0  0  0  0  0  0  0
  2  1  1  0
  2  3  1  1
  2  4  1  0
  4  5  1  6
  4  6  1  0
  6  7  1  6
  6  8  1  0
  3  8  1  0
  8  9  1  1
  9 10  1  0
 10 11  2  0
 11 12  1  0
  9 13  1  0
 12 13  2  0
 13 14  1  0
 14 15  2  0
 15 16  1  0
 12 17  1  0
 16 17  2  0
 17 18  1  0
  1 19  1  6
M  END
$$$$
