@<TRIPOS>MOLECULE
1OF1_SCT_B_500
 34 36 0 0 0
SMALL
GASTEIGER

@<TRIPOS>ATOM
      1 O           1.4696   -3.0052   -3.2450 O.3     1  UNL1       -0.3946
      2 O           1.9261    1.4320   -2.9791 O.3     1  UNL1       -0.3913
      3 O           1.5956   -1.1451    1.0091 O.2     1  UNL1       -0.2465
      4 O          -0.9254   -0.9724    4.7668 O.2     1  UNL1       -0.2674
      5 N          -0.5177   -0.2880    0.8291 N.ar    1  UNL1       -0.2938
      6 N           0.3401   -1.0799    2.8904 N.ar    1  UNL1       -0.2747
      7 C           0.9875   -0.7564   -2.4977 C.3     1  UNL1        0.0133
      8 C           1.6028    0.5416   -1.9435 C.3     1  UNL1        0.0626
      9 C           0.5509    1.1589   -1.0252 C.3     1  UNL1       -0.0024
     10 C          -0.3578    0.0131   -0.6035 C.3     1  UNL1        0.0557
     11 C          -0.0692   -1.1953   -1.4806 C.3     1  UNL1       -0.0077
     12 C           2.0499   -1.8482   -2.7053 C.3     1  UNL1        0.0497
     13 C           0.4998   -0.8472    1.5592 C.ar    1  UNL1        0.3298
     14 C          -1.4257   -0.5053   -1.5607 C.3     1  UNL1       -0.0234
     15 C          -0.8123   -0.7503    3.5304 C.ar    1  UNL1        0.2568
     16 C          -1.8625   -0.1603    2.8163 C.ar    1  UNL1        0.0302
     17 C          -1.6754    0.0817    1.4514 C.ar    1  UNL1        0.0180
     18 C          -3.1351    0.2549    3.5008 C.3     1  UNL1       -0.0332
     19 H           1.2947   -2.8149   -4.2036 H       1  UNL1        0.2094
     20 H           2.7515    1.0820   -3.4049 H       1  UNL1        0.2098
     21 H           1.1225   -1.5125    3.4333 H       1  UNL1        0.1734
     22 H           0.4929   -0.5510   -3.4743 H       1  UNL1        0.0351
     23 H           2.5087    0.3197   -1.3302 H       1  UNL1        0.0597
     24 H          -0.0498    1.9261   -1.5612 H       1  UNL1        0.0313
     25 H           1.0306    1.6336   -0.1420 H       1  UNL1        0.0313
     26 H          -0.0137   -2.1666   -0.9418 H       1  UNL1        0.0328
     27 H           2.5209   -2.1089   -1.7330 H       1  UNL1        0.0561
     28 H           2.8537   -1.4757   -3.3804 H       1  UNL1        0.0561
     29 H          -2.2441   -1.0911   -1.0920 H       1  UNL1        0.0292
     30 H          -1.5919    0.1187   -2.4647 H       1  UNL1        0.0292
     31 H          -2.4623    0.5672    0.8849 H       1  UNL1        0.0815
     32 H          -3.9277    0.5052    2.7638 H       1  UNL1        0.0280
     33 H          -3.5108   -0.5714    4.1405 H       1  UNL1        0.0280
     34 H          -2.9415    1.1464    4.1332 H       1  UNL1        0.0280
@<TRIPOS>BOND
     1     8     2    1
     2     7     8    1
     3     8     9    1
     4    10     5    1
     5     9    10    1
     6     7    11    1
     7    10    11    1
     8     1    12    1
     9     7    12    1
    10     3    13    2
    11     5    13   ar
    12     6    13   ar
    13    10    14    1
    14    11    14    1
    15     4    15    2
    16     6    15   ar
    17    15    16   ar
    18     5    17   ar
    19    16    17   ar
    20    16    18    1
    21     1    19    1
    22     2    20    1
    23     6    21    1
    24     7    22    1
    25     8    23    1
    26     9    24    1
    27     9    25    1
    28    11    26    1
    29    12    27    1
    30    12    28    1
    31    14    29    1
    32    14    30    1
    33    17    31    1
    34    18    32    1
    35    18    33    1
    36    18    34    1
