@<TRIPOS>MOLECULE
1OF1_SCT_B_500
 34 36 0 0 0
SMALL
GASTEIGER

@<TRIPOS>ATOM
      1 O          17.1440   22.5530   10.0490 O.3     1  UNL1       -0.3946
      2 O          18.0440   18.2640    9.2600 O.3     1  UNL1       -0.3913
      3 O          22.6070   20.6670    9.1950 O.2     1  UNL1       -0.2465
      4 O          23.4170   24.9120   10.1500 O.2     1  UNL1       -0.2674
      5 N          20.8310   21.9980    9.5080 N.ar    1  UNL1       -0.2938
      6 N          23.0100   22.7740    9.6670 N.ar    1  UNL1       -0.2747
      7 C          17.4980   20.6080    8.6280 C.3     1  UNL1        0.0133
      8 C          17.8600   19.6150    9.7590 C.3     1  UNL1        0.0626
      9 C          19.1490   20.1770   10.3890 C.3     1  UNL1       -0.0024
     10 C          19.9170   20.8580    9.2260 C.3     1  UNL1        0.0557
     11 C          18.8630   21.1100    8.0720 C.3     1  UNL1       -0.0077
     12 C          16.5390   21.7590    9.0360 C.3     1  UNL1        0.0497
     13 C          22.1550   21.7860    9.4520 C.ar    1  UNL1        0.3298
     14 C          20.0420   20.2300    7.7840 C.3     1  UNL1       -0.0234
     15 C          22.6150   24.0140    9.9550 C.ar    1  UNL1        0.2568
     16 C          21.1550   24.2980   10.0410 C.ar    1  UNL1        0.0302
     17 C          20.3320   23.2210    9.7980 C.ar    1  UNL1        0.0180
     18 C          20.6490   25.6890   10.3740 C.3     1  UNL1       -0.0332
     19 H          16.5415   23.2704   10.3005 H       1  UNL1        0.2094
     20 H          17.2134   17.9465    8.8724 H       1  UNL1        0.2098
     21 H          23.9747   22.5854    9.6120 H       1  UNL1        0.1734
     22 H          16.9177   20.1110    7.8789 H       1  UNL1        0.0351
     23 H          17.0718   19.5332   10.4780 H       1  UNL1        0.0597
     24 H          19.7340   19.3868   10.8112 H       1  UNL1        0.0313
     25 H          18.9363   20.8650   11.1804 H       1  UNL1        0.0313
     26 H          18.4544   21.8685    7.4375 H       1  UNL1        0.0328
     27 H          16.3329   22.3695    8.1817 H       1  UNL1        0.0561
     28 H          15.6268   21.3433    9.4102 H       1  UNL1        0.0561
     29 H          19.8980   19.1783    7.6498 H       1  UNL1        0.0292
     30 H          20.8061   20.2284    7.0350 H       1  UNL1        0.0292
     31 H          19.3089   23.3504    9.8382 H       1  UNL1        0.0815
     32 H          21.4810   26.3461   10.5182 H       1  UNL1        0.0280
     33 H          20.0649   25.6511   11.2697 H       1  UNL1        0.0280
     34 H          20.0442   26.0507    9.5689 H       1  UNL1        0.0280
@<TRIPOS>BOND
     1     8     2    1
     2     7     8    1
     3     8     9    1
     4    10     5    1
     5     9    10    1
     6     7    11    1
     7    10    11    1
     8     1    12    1
     9     7    12    1
    10     3    13    2
    11     5    13   ar
    12     6    13   ar
    13    10    14    1
    14    11    14    1
    15     4    15    2
    16     6    15   ar
    17    15    16   ar
    18     5    17   ar
    19    16    17   ar
    20    16    18    1
    21     1    19    1
    22     2    20    1
    23     6    21    1
    24     7    22    1
    25     8    23    1
    26     9    24    1
    27     9    25    1
    28    11    26    1
    29    12    27    1
    30    12    28    1
    31    14    29    1
    32    14    30    1
    33    17    31    1
    34    18    32    1
    35    18    33    1
    36    18    34    1
