1OF1_SCT_B_500
     RDKit          3D

 18 20  0  0  0  0  0  0  0  0999 V2000
   17.1440   22.5530   10.0490 O   0  0  0  0  0  0  0  0  0  0  0  0
   18.0440   18.2640    9.2600 O   0  0  0  0  0  0  0  0  0  0  0  0
   22.6070   20.6670    9.1950 O   0  0  0  0  0  0  0  0  0  0  0  0
   23.4170   24.9120   10.1500 O   0  0  0  0  0  0  0  0  0  0  0  0
   20.8310   21.9980    9.5080 N   0  0  0  0  0  0  0  0  0  0  0  0
   23.0100   22.7740    9.6670 N   0  0  0  0  0  0  0  0  0  0  0  0
   17.4980   20.6080    8.6280 C   0  0  2  0  0  0  0  0  0  0  0  0
   17.8600   19.6150    9.7590 C   0  0  2  0  0  0  0  0  0  0  0  0
   19.1490   20.1770   10.3890 C   0  0  0  0  0  0  0  0  0  0  0  0
   19.9170   20.8580    9.2260 C   0  0  1  0  0  0  0  0  0  0  0  0
   18.8630   21.1100    8.0720 C   0  0  1  0  0  0  0  0  0  0  0  0
   16.5390   21.7590    9.0360 C   0  0  0  0  0  0  0  0  0  0  0  0
   22.1550   21.7860    9.4520 C   0  0  0  0  0  0  0  0  0  0  0  0
   20.0420   20.2300    7.7840 C   0  0  0  0  0  0  0  0  0  0  0  0
   22.6150   24.0140    9.9550 C   0  0  0  0  0  0  0  0  0  0  0  0
   21.1550   24.2980   10.0410 C   0  0  0  0  0  0  0  0  0  0  0  0
   20.3320   23.2210    9.7980 C   0  0  0  0  0  0  0  0  0  0  0  0
   20.6490   25.6890   10.3740 C   0  0  0  0  0  0  0  0  0  0  0  0
  8  2  1  6
  7  8  1  0
  8  9  1  0
 10  5  1  1
  9 10  1  0
  7 11  1  0
 10 11  1  0
  1 12  1  0
  7 12  1  1
  3 13  2  0
  5 13  1  0
  6 13  1  0
 10 14  1  0
 11 14  1  6
  4 15  2  0
  6 15  1  0
 15 16  1  0
  5 17  1  0
 16 17  2  0
 16 18  1  0
M  END
$$$$
