7LEV_0JO_B_406
     RDKit          3D

 21 21  0  0  0  0  0  0  0  0999 V2000
    8.0439   -5.8771   20.1167 O   0  0  0  0  0  0  0  0  0  0  0  0
    8.6262   -4.9564   19.4648 C   0  0  0  0  0  0  0  0  0  0  0  0
    9.5867   -5.3714   18.5475 O   0  0  0  0  0  0  0  0  0  0  0  0
    8.2963   -3.5450   19.6768 C   0  0  0  0  0  0  0  0  0  0  0  0
    8.9771   -2.6582   18.9818 C   0  0  0  0  0  0  0  0  0  0  0  0
    7.2763   -3.2562   20.6028 N   0  0  0  0  0  0  0  0  0  0  0  0
    7.3728   -2.5545   21.6737 C   0  0  0  0  0  0  0  0  0  0  0  0
    6.1517   -2.4220   22.4701 C   0  0  0  0  0  0  0  0  0  0  0  0
    4.9720   -2.9013   21.9428 C   0  0  0  0  0  0  0  0  0  0  0  0
    4.9026   -3.4989   20.7130 O   0  0  0  0  0  0  0  0  0  0  0  0
    3.7817   -2.7897   22.6648 C   0  0  0  0  0  0  0  0  0  0  0  0
    2.4902   -3.3084   22.1040 C   0  0  0  0  0  0  0  0  0  0  0  0
    3.8525   -2.2016   23.8744 N   0  0  0  0  0  0  0  0  0  0  0  0
    4.9912   -1.7255   24.4118 C   0  0  0  0  0  0  0  0  0  0  0  0
    6.1846   -1.8315   23.7007 C   0  0  0  0  0  0  0  0  0  0  0  0
    7.4101   -1.3050   24.3297 C   0  0  0  0  0  0  0  0  0  0  0  0
    7.6868   -0.0808   23.7177 O   0  0  0  0  0  0  0  0  0  0  0  0
    9.1277    0.6045   24.2653 P   0  0  2  0  0  5  0  0  0  0  0  0
    9.3915    1.9677   23.6929 O   0  0  0  0  0  0  0  0  0  0  0  0
   10.3712   -0.4990   23.9542 O   0  0  0  0  0  0  0  0  0  0  0  0
    9.0209    0.7495   25.9672 O   0  0  0  0  0  0  0  0  0  0  0  0
  1  2  2  0
  2  3  1  0
  2  4  1  0
  4  5  2  0
  4  6  1  0
  6  7  2  0
  7  8  1  0
  8  9  2  0
  9 10  1  0
  9 11  1  0
 12 11  1  6
 11 13  2  0
 13 14  1  0
  8 15  1  0
 14 15  2  0
 15 16  1  0
 16 17  1  6
 17 18  1  0
 18 19  2  0
 18 20  1  1
 18 21  1  0
M  END
$$$$
