7P4C_5OV_AAA_905
     RDKit          3D

 29 30  0  0  0  0  0  0  0  0999 V2000
   85.8061   15.7056   37.0808 C   0  0  1  0  0  0  0  0  0  0  0  0
   85.6409   14.2459   37.6153 C   0  0  2  0  0  0  0  0  0  0  0  0
   85.6884   13.1677   36.5029 C   0  0  2  0  0  0  0  0  0  0  0  0
   87.1332   12.8612   36.0532 C   0  0  2  0  0  0  0  0  0  0  0  0
   84.7475   13.4706   35.2890 C   0  0  2  0  0  0  0  0  0  0  0  0
   84.1118   14.8750   35.3348 C   0  0  1  0  0  0  0  0  0  0  0  0
   85.1753   15.9347   35.6729 C   0  0  1  0  0  0  0  0  0  0  0  0
   85.2349   16.6311   38.0604 N   0  0  0  0  0  0  0  0  0  0  0  0
   82.7297   16.0538   38.6614 O   0  0  0  0  0  0  0  0  0  0  0  0
   84.1476   15.6407   38.9363 S   0  0  2  0  0  6  0  0  0  0  0  0
   84.4364   15.6974   40.4103 O   0  0  0  0  0  0  0  0  0  0  0  0
   84.4381   14.1082   38.3370 O   0  0  0  0  0  0  0  0  0  0  0  0
   87.7727   11.9996   36.9534 O   0  0  0  0  0  0  0  0  0  0  0  0
   83.7160   12.5180   35.2310 O   0  0  0  0  0  0  0  0  0  0  0  0
   83.5415   15.1528   34.0801 O   0  0  0  0  0  0  0  0  0  0  0  0
   84.6066   17.2172   35.5780 O   0  0  0  0  0  0  0  0  0  0  0  0
   86.8959   15.9199   36.9861 H   0  0  0  0  0  0  0  0  0  0  0  0
   86.4708   14.0492   38.3323 H   0  0  0  0  0  0  0  0  0  0  0  0
   85.3379   12.2237   36.9801 H   0  0  0  0  0  0  0  0  0  0  0  0
   87.7028   13.8154   35.9842 H   0  0  0  0  0  0  0  0  0  0  0  0
   87.1204   12.4016   35.0392 H   0  0  0  0  0  0  0  0  0  0  0  0
   85.3333   13.4137   34.3398 H   0  0  0  0  0  0  0  0  0  0  0  0
   83.3150   14.8865   36.1152 H   0  0  0  0  0  0  0  0  0  0  0  0
   85.9786   15.8488   34.9033 H   0  0  0  0  0  0  0  0  0  0  0  0
   85.9902   16.9143   38.7270 H   0  0  0  0  0  0  0  0  0  0  0  0
   87.5244   12.3146   37.8609 H   0  0  0  0  0  0  0  0  0  0  0  0
   84.0236   11.7297   35.7510 H   0  0  0  0  0  0  0  0  0  0  0  0
   83.7702   16.0930   33.8571 H   0  0  0  0  0  0  0  0  0  0  0  0
   85.0110   17.7636   36.3021 H   0  0  0  0  0  0  0  0  0  0  0  0
  1  2  1  0
  2  3  1  0
  3  4  1  0
  3  5  1  0
  5  6  1  0
  1  7  1  0
  6  7  1  0
  1  8  1  0
  9 10  2  0
  8 10  1  0
 10 11  2  0
 10 12  1  6
  2 12  1  0
  4 13  1  0
  5 14  1  0
  6 15  1  0
  7 16  1  0
  1 17  1  6
  2 18  1  1
  3 19  1  1
  4 20  1  6
  4 21  1  0
  5 22  1  6
  6 23  1  1
  7 24  1  6
  8 25  1  0
 13 26  1  0
 14 27  1  0
 15 28  1  0
 16 29  1  0
M  END
