7OMX_CNA_AAA_301
     RDKit          3D

 44 48  0  0  0  0  0  0  0  0999 V2000
   11.6662   -8.4537   -6.4788 P   0  0  2  0  0  0  0  0  0  0  0  0
   12.2572   -9.6555   -5.7871 O   0  0  0  0  0  0  0  0  0  0  0  0
   12.3602   -7.9076   -7.6774 O   0  0  0  0  0  0  0  0  0  0  0  0
   11.5560   -7.3532   -5.3753 O   0  0  0  0  0  0  0  0  0  0  0  0
   10.8069   -6.1336   -5.6147 C   0  0  0  0  0  0  0  0  0  0  0  0
   11.3984   -5.0931   -4.7174 C   0  0  1  0  0  0  0  0  0  0  0  0
   12.7816   -5.3982   -4.4167 O   0  0  0  0  0  0  0  0  0  0  0  0
   11.3981   -3.6535   -5.2593 C   0  0  1  0  0  0  0  0  0  0  0  0
   10.9821   -2.8136   -4.1935 O   0  0  0  0  0  0  0  0  0  0  0  0
   12.8651   -3.4329   -5.6381 C   0  0  1  0  0  0  0  0  0  0  0  0
   13.2400   -2.0749   -5.6683 O   0  0  0  0  0  0  0  0  0  0  0  0
   13.5244   -4.2039   -4.5057 C   0  0  2  0  0  0  0  0  0  0  0  0
   14.9290   -4.5439   -4.7005 N   0  0  0  0  0  0  0  0  0  0  0  0
   15.4930   -5.7569   -4.9953 C   0  0  0  0  0  0  0  0  0  0  0  0
   16.8027   -5.7359   -5.0258 N   0  0  0  0  0  0  0  0  0  0  0  0
   17.1296   -4.4254   -4.7144 C   0  0  0  0  0  0  0  0  0  0  0  0
   18.3602   -3.7589   -4.6017 C   0  0  0  0  0  0  0  0  0  0  0  0
   19.5421   -4.3337   -4.8343 N   0  0  0  0  0  0  0  0  0  0  0  0
   18.3214   -2.4622   -4.2267 N   0  0  0  0  0  0  0  0  0  0  0  0
   17.1306   -1.8766   -4.0861 C   0  0  0  0  0  0  0  0  0  0  0  0
   15.9126   -2.4001   -4.1536 N   0  0  0  0  0  0  0  0  0  0  0  0
   15.9820   -3.6926   -4.4906 C   0  0  0  0  0  0  0  0  0  0  0  0
   10.1733   -8.8355   -6.9116 O   0  0  0  0  0  0  0  0  0  0  0  0
    8.6927   -8.7442   -6.3364 P   0  0  1  0  0  0  0  0  0  0  0  0
    8.7251   -8.9977   -4.8748 O   0  0  0  0  0  0  0  0  0  0  0  0
    8.1100   -7.4821   -6.9028 O   0  0  0  0  0  0  0  0  0  0  0  0
    7.9841   -9.9223   -7.1425 O   0  0  0  0  0  0  0  0  0  0  0  0
    8.7453  -11.0982   -7.5540 C   0  0  0  0  0  0  0  0  0  0  0  0
    8.1879  -11.5373   -8.8868 C   0  0  1  0  0  0  0  0  0  0  0  0
    6.6847  -11.2400   -9.0347 C   0  0  0  0  0  0  0  0  0  0  0  0
    8.8785  -10.8443  -10.0826 C   0  0  1  0  0  0  0  0  0  0  0  0
    8.9718  -11.7575  -11.1818 O   0  0  0  0  0  0  0  0  0  0  0  0
    7.9661   -9.6470  -10.3779 C   0  0  1  0  0  0  0  0  0  0  0  0
    8.1784   -9.1792  -11.7093 O   0  0  0  0  0  0  0  0  0  0  0  0
    6.5433  -10.2114  -10.1883 C   0  0  2  0  0  0  0  0  0  0  0  0
    5.4998   -9.1756   -9.9068 N   0  0  0  0  0  0  0  0  0  0  0  0
    5.7867   -8.0726   -9.1229 C   0  0  0  0  0  0  0  0  0  0  0  0
    4.8208   -7.0945   -8.8935 C   0  0  0  0  0  0  0  0  0  0  0  0
    5.1639   -5.9113   -8.0248 C   0  0  0  0  0  0  0  0  0  0  0  0
    4.2779   -5.1195   -7.6925 O   0  0  0  0  0  0  0  0  0  0  0  0
    6.4206   -5.7832   -7.6362 N   0  0  0  0  0  0  0  0  0  0  0  0
    3.5668   -7.2126   -9.4885 C   0  0  0  0  0  0  0  0  0  0  0  0
    3.3038   -8.3155  -10.2636 C   0  0  0  0  0  0  0  0  0  0  0  0
    4.2628   -9.2836  -10.4294 C   0  0  0  0  0  0  0  0  0  0  0  0
  1  2  1  1
  1  3  2  0
  1  4  1  0
  4  5  1  0
  6  5  1  6
  6  7  1  0
  6  8  1  0
  8  9  1  1
  8 10  1  0
 10 11  1  1
 10 12  1  0
  7 12  1  0
 12 13  1  6
 13 14  1  0
 14 15  2  0
 15 16  1  0
 16 17  2  0
 17 18  1  0
 17 19  1  0
 19 20  2  0
 20 21  1  0
 21 22  2  0
 13 22  1  0
 16 22  1  0
  1 23  1  0
 23 24  1  0
 24 25  2  0
 24 26  1  1
 24 27  1  0
 27 28  1  0
 29 28  1  1
 29 30  1  0
 29 31  1  0
 31 32  1  6
 31 33  1  0
 33 34  1  6
 33 35  1  0
 30 35  1  0
 35 36  1  1
 36 37  2  0
 37 38  1  0
 38 39  1  0
 39 40  2  0
 39 41  1  0
 38 42  2  0
 42 43  1  0
 36 44  1  0
 43 44  2  0
M  CHG  1  36   1
M  END
