@<TRIPOS>MOLECULE
1GKC_NFH_A_1448
 51 50 0 0 0
SMALL
GASTEIGER

@<TRIPOS>ATOM
      1 C          66.2740   30.1870  117.6290 C.2     1  UNL1        0.2183
      2 N          65.3230   29.1400  114.0740 N.am    1  UNL1       -0.1857
      3 O          66.8820   29.1800  118.0670 O.2     1  UNL1       -0.2754
      4 C          66.4910   31.8470  120.5860 C.2     1  UNL1        0.2336
      5 N          66.4500   31.4280  118.1310 N.am    1  UNL1       -0.3032
      6 O          65.4060   32.4680  120.5890 O.2     1  UNL1       -0.2738
      7 N          67.0030   31.1960  121.6670 N.am    1  UNL1       -0.3168
      8 C          65.2680   30.0260  116.4520 C.3     1  UNL1        0.0538
      9 C          64.0190   29.1340  116.8410 C.3     1  UNL1       -0.0380
     10 C          63.0380   29.6080  117.9420 C.3     1  UNL1       -0.0460
     11 C          64.8510   27.9580  113.6730 C.2     1  UNL1        0.2250
     12 O          64.2130   27.7930  112.6890 O.2     1  UNL1       -0.2772
     13 C          66.0930   29.3440  115.2980 C.3     1  UNL1        0.0525
     14 O          65.0830   30.1770  113.3580 O.3     1  UNL1       -0.2927
     15 C          67.3890   31.7540  119.2710 C.3     1  UNL1        0.1042
     16 C          68.2790   33.0670  118.9690 C.3     1  UNL1       -0.0108
     17 C          62.2950   30.8850  117.4880 C.3     1  UNL1       -0.0626
     18 C          61.9510   28.5640  118.1220 C.3     1  UNL1       -0.0626
     19 C          69.2630   33.4070  120.1530 C.3     1  UNL1       -0.0579
     20 C          69.1190   32.8830  117.6770 C.3     1  UNL1       -0.0579
     21 C          67.4240   34.3730  118.7360 C.3     1  UNL1       -0.0579
     22 C          66.3500   31.1370  122.9960 C.3     1  UNL1        0.0001
     23 H          65.9357   32.1658  117.7305 H       1  UNL1        0.1495
     24 H          67.8652   30.7333  121.5583 H       1  UNL1        0.1484
     25 H          64.8629   30.9744  116.1668 H       1  UNL1        0.0410
     26 H          64.4032   28.1868  117.1573 H       1  UNL1        0.0275
     27 H          63.4196   29.1525  115.9548 H       1  UNL1        0.0275
     28 H          63.6051   29.7767  118.8336 H       1  UNL1        0.0296
     29 H          65.0554   27.1334  114.2589 H       1  UNL1        0.1274
     30 H          66.4369   28.3919  115.6445 H       1  UNL1        0.0496
     31 H          66.9002   30.0033  115.0560 H       1  UNL1        0.0496
     32 H          64.5685   29.9188  112.5772 H       1  UNL1        0.2416
     33 H          68.1258   30.9901  119.4065 H       1  UNL1        0.0600
     34 H          61.7409   30.6774  116.5965 H       1  UNL1        0.0232
     35 H          63.0056   31.6610  117.2937 H       1  UNL1        0.0232
     36 H          61.6241   31.2006  118.2595 H       1  UNL1        0.0232
     37 H          61.4204   28.4392  117.2013 H       1  UNL1        0.0232
     38 H          61.2719   28.8840  118.8845 H       1  UNL1        0.0232
     39 H          62.3944   27.6329  118.4072 H       1  UNL1        0.0232
     40 H          69.8763   32.5557  120.3627 H       1  UNL1        0.0236
     41 H          68.6974   33.6625  121.0246 H       1  UNL1        0.0236
     42 H          69.8831   34.2336  119.8753 H       1  UNL1        0.0236
     43 H          69.7272   32.0075  117.7687 H       1  UNL1        0.0236
     44 H          69.7451   33.7388  117.5337 H       1  UNL1        0.0236
     45 H          68.4638   32.7759  116.8378 H       1  UNL1        0.0236
     46 H          66.8163   34.5597  119.5966 H       1  UNL1        0.0236
     47 H          66.7974   34.2409  117.8788 H       1  UNL1        0.0236
     48 H          68.0787   35.2038  118.5746 H       1  UNL1        0.0236
     49 H          65.4285   31.6799  122.9650 H       1  UNL1        0.0426
     50 H          66.9956   31.5718  123.7302 H       1  UNL1        0.0426
     51 H          66.1545   30.1167  123.2523 H       1  UNL1        0.0426
@<TRIPOS>BOND
     1     1     3    2
     2     1     5   am
     3     4     6    2
     4     4     7   am
     5     1     8    1
     6     8     9    1
     7     9    10    1
     8     2    11   am
     9    11    12    2
    10     8    13    1
    11     2    13    1
    12     2    14    1
    13     4    15    1
    14    15     5    1
    15    15    16    1
    16    10    17    1
    17    10    18    1
    18    16    19    1
    19    16    20    1
    20    16    21    1
    21     7    22    1
    22     5    23    1
    23     7    24    1
    24     8    25    1
    25     9    26    1
    26     9    27    1
    27    10    28    1
    28    11    29    1
    29    13    30    1
    30    13    31    1
    31    14    32    1
    32    15    33    1
    33    17    34    1
    34    17    35    1
    35    17    36    1
    36    18    37    1
    37    18    38    1
    38    18    39    1
    39    19    40    1
    40    19    41    1
    41    19    42    1
    42    20    43    1
    43    20    44    1
    44    20    45    1
    45    21    46    1
    46    21    47    1
    47    21    48    1
    48    22    49    1
    49    22    50    1
    50    22    51    1
