7FHA_ADX_A_1001
     RDKit          3D

 27 29  0  0  0  0  0  0  0  0999 V2000
  -37.5234   16.5346  -24.5064 S   0  0  1  0  0  6  0  0  0  0  0  0
  -36.1355   16.6844  -25.0465 O   0  0  0  0  0  0  0  0  0  0  0  0
  -37.7676   15.0803  -24.2338 O   0  0  0  0  0  0  0  0  0  0  0  0
  -37.6143   17.3714  -23.0632 O   0  0  0  0  0  0  0  0  0  0  0  0
  -40.1460   17.2635  -24.9778 P   0  0  2  0  0  5  0  0  0  0  0  0
  -40.1417   16.3483  -23.7507 O   0  0  0  0  0  0  0  0  0  0  0  0
  -41.3327   16.7100  -26.0407 O   0  0  0  0  0  0  0  0  0  0  0  0
  -38.6068   17.1067  -25.6590 O   0  0  0  0  0  0  0  0  0  0  0  0
  -40.4960   18.8351  -24.5338 O   0  0  0  0  0  0  0  0  0  0  0  0
  -39.4523   19.4457  -23.8425 C   0  0  0  0  0  0  0  0  0  0  0  0
  -39.9119   20.0482  -22.5394 C   0  0  1  0  0  0  0  0  0  0  0  0
  -41.2851   19.9831  -22.3482 O   0  0  0  0  0  0  0  0  0  0  0  0
  -39.2657   19.3171  -21.4042 C   0  0  1  0  0  0  0  0  0  0  0  0
  -38.5667   20.2579  -20.6187 O   0  0  0  0  0  0  0  0  0  0  0  0
  -40.4646   18.8129  -20.6260 C   0  0  1  0  0  0  0  0  0  0  0  0
  -40.2145   18.7714  -19.2598 O   0  0  0  0  0  0  0  0  0  0  0  0
  -41.4916   19.8745  -20.9781 C   0  0  2  0  0  0  0  0  0  0  0  0
  -42.8065   19.4198  -20.6584 N   0  0  0  0  0  0  0  0  0  0  0  0
  -43.4609   18.4741  -21.3875 C   0  0  0  0  0  0  0  0  0  0  0  0
  -44.6610   18.2306  -20.8839 N   0  0  0  0  0  0  0  0  0  0  0  0
  -44.8220   19.0168  -19.8055 C   0  0  0  0  0  0  0  0  0  0  0  0
  -45.8832   19.1667  -18.9094 C   0  0  0  0  0  0  0  0  0  0  0  0
  -47.0746   18.4067  -19.0493 N   0  0  0  0  0  0  0  0  0  0  0  0
  -45.6968   20.0626  -17.9285 N   0  0  0  0  0  0  0  0  0  0  0  0
  -44.5464   20.7778  -17.8164 C   0  0  0  0  0  0  0  0  0  0  0  0
  -43.5232   20.6332  -18.6804 N   0  0  0  0  0  0  0  0  0  0  0  0
  -43.6548   19.7557  -19.6753 C   0  0  0  0  0  0  0  0  0  0  0  0
  1  2  2  0
  1  3  2  0
  1  4  1  1
  5  6  2  0
  5  7  1  6
  1  8  1  0
  5  8  1  0
  5  9  1  0
 10  9  1  1
 11 10  1  0
 11 12  1  1
 11 13  1  0
 13 14  1  1
 13 15  1  0
 15 16  1  1
 12 17  1  0
 15 17  1  0
 17 18  1  6
 18 19  1  0
 19 20  2  0
 20 21  1  0
 21 22  2  0
 22 23  1  0
 22 24  1  0
 24 25  2  0
 25 26  1  0
 18 27  1  0
 21 27  1  0
 26 27  2  0
M  END
$$$$
