7PT3_3KK_A_702
     RDKit          3D

 54 56  0  0  0  0  0  0  0  0999 V2000
   -7.8685  -12.8542   20.1204 C   0  0  0  0  0  0  0  0  0  0  0  0
   -7.8713  -14.2996   19.6548 C   0  0  1  0  0  0  0  0  0  0  0  0
   -8.9565  -14.5414   18.5869 C   0  0  0  0  0  0  0  0  0  0  0  0
   -6.5675  -14.5213   19.0747 O   0  0  0  0  0  0  0  0  0  0  0  0
   -8.0854  -15.2234   20.8918 C   0  0  0  0  0  0  0  0  0  0  0  0
   -8.2132  -14.8190   22.0302 O   0  0  0  0  0  0  0  0  0  0  0  0
   -8.1622  -16.9514   20.5278 S   0  0  0  0  0  0  0  0  0  0  0  0
   -9.8977  -17.2799   20.9501 C   0  0  0  0  0  0  0  0  0  0  0  0
  -10.2793  -18.7007   20.5274 C   0  0  0  0  0  0  0  0  0  0  0  0
  -10.8082  -19.4251   21.6680 N   0  0  0  0  0  0  0  0  0  0  0  0
  -11.1065  -20.7273   21.5998 C   0  0  0  0  0  0  0  0  0  0  0  0
  -10.3129  -21.6280   21.9472 O   0  0  0  0  0  0  0  0  0  0  0  0
  -12.4999  -21.0763   21.1320 C   0  0  0  0  0  0  0  0  0  0  0  0
  -13.3467  -21.4691   22.3518 C   0  0  0  0  0  0  0  0  0  0  0  0
  -14.1127  -22.6910   22.1433 N   0  0  0  0  0  0  0  0  0  0  0  0
  -14.6533  -23.4034   23.1073 C   0  0  0  0  0  0  0  0  0  0  0  0
  -15.8660  -23.4000   23.3429 O   0  0  0  0  0  0  0  0  0  0  0  0
  -13.7089  -24.3716   23.8355 C   0  0  2  0  0  0  0  0  0  0  0  0
  -12.3462  -24.1092   23.4701 O   0  0  0  0  0  0  0  0  0  0  0  0
  -13.8998  -25.8835   23.5581 C   0  0  2  0  0  0  0  0  0  0  0  0
  -15.2545  -26.1147   22.8890 C   0  0  0  0  0  0  0  0  0  0  0  0
  -13.8197  -26.6867   24.8593 C   0  0  0  0  0  0  0  0  0  0  0  0
  -12.8060  -26.3918   22.6306 C   0  0  0  0  0  0  0  0  0  0  0  0
  -12.7552  -25.5552   21.4193 O   0  0  0  0  0  0  0  0  0  0  0  0
  -12.5439  -26.3298   20.0249 P   0  0  2  0  0  0  0  0  0  0  0  0
  -11.7886  -25.3187   19.2049 O   0  0  0  0  0  0  0  0  0  0  0  0
  -13.8227  -26.9223   19.5311 O   0  0  0  0  0  0  0  0  0  0  0  0
  -11.6388  -27.5097   20.6119 O   0  0  0  0  0  0  0  0  0  0  0  0
  -10.1190  -27.6981   21.0851 P   0  0  2  0  0  0  0  0  0  0  0  0
  -10.3295  -28.5503   22.2940 O   0  0  0  0  0  0  0  0  0  0  0  0
   -9.4157  -26.4079   21.0722 O   0  0  0  0  0  0  0  0  0  0  0  0
   -9.5795  -28.6161   19.8719 O   0  0  0  0  0  0  0  0  0  0  0  0
   -9.3468  -28.0994   18.5468 C   0  0  0  0  0  0  0  0  0  0  0  0
   -9.4022  -29.2052   17.4973 C   0  0  1  0  0  0  0  0  0  0  0  0
  -10.2228  -30.3332   17.9296 O   0  0  0  0  0  0  0  0  0  0  0  0
   -9.9727  -28.8384   16.1240 C   0  0  1  0  0  0  0  0  0  0  0  0
   -9.2617  -29.6182   15.1961 O   0  0  0  0  0  0  0  0  0  0  0  0
   -7.9092  -29.0358   14.5848 P   0  0  1  0  0  0  0  0  0  0  0  0
   -6.9448  -28.8141   15.6382 O   0  0  0  0  0  0  0  0  0  0  0  0
   -7.6287  -30.2725   13.7905 O   0  0  0  0  0  0  0  0  0  0  0  0
   -8.2615  -27.7436   13.7278 O   0  0  0  0  0  0  0  0  0  0  0  0
  -11.4389  -29.2593   16.2419 C   0  0  1  0  0  0  0  0  0  0  0  0
  -12.0872  -29.3311   14.9902 O   0  0  0  0  0  0  0  0  0  0  0  0
  -11.2555  -30.5754   17.0030 C   0  0  2  0  0  0  0  0  0  0  0  0
  -12.4196  -31.0495   17.7456 N   0  0  0  0  0  0  0  0  0  0  0  0
  -13.1623  -30.3999   18.7042 C   0  0  0  0  0  0  0  0  0  0  0  0
  -14.1621  -31.1119   19.1654 N   0  0  0  0  0  0  0  0  0  0  0  0
  -14.0515  -32.3263   18.5026 C   0  0  0  0  0  0  0  0  0  0  0  0
  -12.9898  -32.3063   17.6258 C   0  0  0  0  0  0  0  0  0  0  0  0
  -12.5967  -33.3159   16.8324 N   0  0  0  0  0  0  0  0  0  0  0  0
  -13.4007  -34.3750   16.9600 C   0  0  0  0  0  0  0  0  0  0  0  0
  -14.4711  -34.5327   17.7552 N   0  0  0  0  0  0  0  0  0  0  0  0
  -14.8260  -33.5116   18.5606 C   0  0  0  0  0  0  0  0  0  0  0  0
  -15.8753  -33.6459   19.3563 N   0  0  0  0  0  0  0  0  0  0  0  0
  2  1  1  1
  2  3  1  0
  2  4  1  0
  2  5  1  0
  5  6  2  0
  5  7  1  0
  7  8  1  0
  8  9  1  0
  9 10  1  0
 10 11  1  0
 11 12  2  0
 11 13  1  0
 13 14  1  0
 14 15  1  0
 15 16  1  0
 16 17  2  0
 16 18  1  0
 18 19  1  6
 18 20  1  0
 20 21  1  6
 20 22  1  0
 20 23  1  0
 23 24  1  0
 24 25  1  0
 25 26  1  6
 25 27  2  0
 25 28  1  0
 28 29  1  0
 29 30  2  0
 29 31  1  1
 29 32  1  0
 32 33  1  0
 34 33  1  1
 34 35  1  0
 34 36  1  0
 36 37  1  6
 37 38  1  0
 38 39  2  0
 38 40  1  6
 38 41  1  0
 36 42  1  0
 42 43  1  6
 42 44  1  0
 35 44  1  0
 44 45  1  1
 45 46  1  0
 46 47  2  0
 47 48  1  0
 45 49  1  0
 48 49  2  0
 49 50  1  0
 50 51  2  0
 51 52  1  0
 48 53  1  0
 52 53  2  0
 53 54  1  0
M  END
