2BR1_PFP_A_1277
     RDKit          3D

 29 32  0  0  0  0  0  0  0  0999 V2000
   15.3573   -8.3936   13.5967 C   0  0  0  0  0  0  0  0  0  0  0  0
   15.2581   -7.1378   14.2581 O   0  0  0  0  0  0  0  0  0  0  0  0
   15.1745   -5.9600   13.5247 C   0  0  0  0  0  0  0  0  0  0  0  0
   14.9696   -4.7413   14.1352 C   0  0  0  0  0  0  0  0  0  0  0  0
   14.8828   -3.5517   13.4216 C   0  0  0  0  0  0  0  0  0  0  0  0
   15.2972   -5.9962   12.1560 C   0  0  0  0  0  0  0  0  0  0  0  0
   15.2162   -4.8384   11.4207 C   0  0  0  0  0  0  0  0  0  0  0  0
   15.0080   -3.5880   12.0249 C   0  0  0  0  0  0  0  0  0  0  0  0
   14.9107   -2.4011   11.2185 C   0  0  0  0  0  0  0  0  0  0  0  0
   15.8224   -1.7657   10.4066 C   0  0  0  0  0  0  0  0  0  0  0  0
   17.1337   -2.0671   10.1037 C   0  0  0  0  0  0  0  0  0  0  0  0
   17.8188   -3.1957   10.6347 N   0  0  0  0  0  0  0  0  0  0  0  0
   19.2069   -3.4952   10.3357 C   0  0  0  0  0  0  0  0  0  0  0  0
   19.6140   -4.6651   11.2169 C   0  0  0  0  0  0  0  0  0  0  0  0
   18.8538   -5.7976   10.9032 O   0  0  0  0  0  0  0  0  0  0  0  0
   17.7573   -1.2204    9.2544 N   0  0  0  0  0  0  0  0  0  0  0  0
   17.1421   -0.1463    8.7321 C   0  0  0  0  0  0  0  0  0  0  0  0
   15.8579    0.1530    9.0261 N   0  0  0  0  0  0  0  0  0  0  0  0
   15.1759   -0.6483    9.8661 C   0  0  0  0  0  0  0  0  0  0  0  0
   13.9725   -0.6345   10.3313 O   0  0  0  0  0  0  0  0  0  0  0  0
   13.7432   -1.6393   11.1371 C   0  0  0  0  0  0  0  0  0  0  0  0
   12.4661   -1.8656   11.8024 C   0  0  0  0  0  0  0  0  0  0  0  0
   11.7550   -0.7179   12.1656 C   0  0  0  0  0  0  0  0  0  0  0  0
   10.5326   -0.8074   12.8000 C   0  0  0  0  0  0  0  0  0  0  0  0
   10.0063   -2.0683   13.0791 C   0  0  0  0  0  0  0  0  0  0  0  0
    8.7817   -2.1001   13.7141 O   0  0  0  0  0  0  0  0  0  0  0  0
    8.1226   -3.3184   13.9962 C   0  0  0  0  0  0  0  0  0  0  0  0
   10.7198   -3.1874   12.7146 C   0  0  0  0  0  0  0  0  0  0  0  0
   11.9552   -3.1093   12.0736 C   0  0  0  0  0  0  0  0  0  0  0  0
  1  2  1  0
  2  3  1  0
  3  4  2  0
  4  5  1  0
  3  6  1  0
  6  7  2  0
  5  8  2  0
  7  8  1  0
  8  9  1  0
  9 10  1  0
 10 11  2  0
 11 12  1  0
 12 13  1  0
 13 14  1  0
 14 15  1  0
 11 16  1  0
 16 17  2  0
 17 18  1  0
 10 19  1  0
 18 19  2  0
 19 20  1  0
  9 21  2  0
 20 21  1  0
 21 22  1  0
 22 23  2  0
 23 24  1  0
 24 25  2  0
 25 26  1  0
 26 27  1  0
 25 28  1  0
 22 29  1  0
 28 29  2  0
M  END
$$$$
