2BR1_PFP_A_1277
     RDKit          3D

 29 32  0  0  0  0  0  0  0  0999 V2000
   15.9153   -7.1014   15.9278 C   0  0  0  0  0  0  0  0  0  0  0  0
   15.6247   -7.2018   14.5386 O   0  0  0  0  0  0  0  0  0  0  0  0
   15.4266   -6.0570   13.7757 C   0  0  0  0  0  0  0  0  0  0  0  0
   15.1594   -4.8369   14.3588 C   0  0  0  0  0  0  0  0  0  0  0  0
   14.9581   -3.6799   13.6154 C   0  0  0  0  0  0  0  0  0  0  0  0
   15.4960   -6.1281   12.4045 C   0  0  0  0  0  0  0  0  0  0  0  0
   15.3020   -5.0031   11.6401 C   0  0  0  0  0  0  0  0  0  0  0  0
   15.0288   -3.7519   12.2162 C   0  0  0  0  0  0  0  0  0  0  0  0
   14.8136   -2.6013   11.3807 C   0  0  0  0  0  0  0  0  0  0  0  0
   15.6485   -1.9188   10.5254 C   0  0  0  0  0  0  0  0  0  0  0  0
   16.9714   -2.1222   10.1930 C   0  0  0  0  0  0  0  0  0  0  0  0
   17.7602   -3.1756   10.7346 N   0  0  0  0  0  0  0  0  0  0  0  0
   19.2108   -3.1813   10.6976 C   0  0  0  0  0  0  0  0  0  0  0  0
   19.6290   -4.1794    9.6299 C   0  0  0  0  0  0  0  0  0  0  0  0
   20.4631   -3.5641    8.6894 O   0  0  0  0  0  0  0  0  0  0  0  0
   17.5010   -1.2537    9.3029 N   0  0  0  0  0  0  0  0  0  0  0  0
   16.7865   -0.2487    8.7693 C   0  0  0  0  0  0  0  0  0  0  0  0
   15.4905   -0.0455    9.0922 N   0  0  0  0  0  0  0  0  0  0  0  0
   14.8988   -0.8739    9.9734 C   0  0  0  0  0  0  0  0  0  0  0  0
   13.7111   -0.9434   10.4728 O   0  0  0  0  0  0  0  0  0  0  0  0
   13.5861   -1.9389   11.3123 C   0  0  0  0  0  0  0  0  0  0  0  0
   12.3499   -2.2477   12.0204 C   0  0  0  0  0  0  0  0  0  0  0  0
   11.5378   -1.1544   12.3361 C   0  0  0  0  0  0  0  0  0  0  0  0
   10.3421   -1.3237   13.0044 C   0  0  0  0  0  0  0  0  0  0  0  0
    9.9463   -2.6109   13.3665 C   0  0  0  0  0  0  0  0  0  0  0  0
    8.7429   -2.7230   14.0321 O   0  0  0  0  0  0  0  0  0  0  0  0
    8.1864   -3.9822   14.3537 C   0  0  0  0  0  0  0  0  0  0  0  0
   10.7581   -3.6757   13.0477 C   0  0  0  0  0  0  0  0  0  0  0  0
   11.9675   -3.5169   12.3732 C   0  0  0  0  0  0  0  0  0  0  0  0
  1  2  1  0
  2  3  1  0
  3  4  2  0
  4  5  1  0
  3  6  1  0
  6  7  2  0
  5  8  2  0
  7  8  1  0
  8  9  1  0
  9 10  1  0
 10 11  2  0
 11 12  1  0
 12 13  1  0
 13 14  1  0
 14 15  1  0
 11 16  1  0
 16 17  2  0
 17 18  1  0
 10 19  1  0
 18 19  2  0
 19 20  1  0
  9 21  2  0
 20 21  1  0
 21 22  1  0
 22 23  2  0
 23 24  1  0
 24 25  2  0
 25 26  1  0
 26 27  1  0
 25 28  1  0
 22 29  1  0
 28 29  2  0
M  END
$$$$
