2BR1_PFP_A_1277
     RDKit          3D

 29 32  0  0  0  0  0  0  0  0999 V2000
   15.6682   -8.1586   14.1624 C   0  0  0  0  0  0  0  0  0  0  0  0
   15.0709   -6.9359   14.5778 O   0  0  0  0  0  0  0  0  0  0  0  0
   15.0302   -5.8441   13.7186 C   0  0  0  0  0  0  0  0  0  0  0  0
   15.0042   -6.0021   12.3495 C   0  0  0  0  0  0  0  0  0  0  0  0
   14.9634   -4.9248   11.4723 C   0  0  0  0  0  0  0  0  0  0  0  0
   15.0152   -4.5692   14.2327 C   0  0  0  0  0  0  0  0  0  0  0  0
   14.9750   -3.4824   13.3932 C   0  0  0  0  0  0  0  0  0  0  0  0
   14.9481   -3.6236   11.9963 C   0  0  0  0  0  0  0  0  0  0  0  0
   14.9247   -2.4604   11.1509 C   0  0  0  0  0  0  0  0  0  0  0  0
   15.8571   -1.9361   10.2849 C   0  0  0  0  0  0  0  0  0  0  0  0
   17.1244   -2.3629    9.9476 C   0  0  0  0  0  0  0  0  0  0  0  0
   17.7275   -3.5298   10.4952 N   0  0  0  0  0  0  0  0  0  0  0  0
   19.0679   -3.9669   10.1516 C   0  0  0  0  0  0  0  0  0  0  0  0
   20.0265   -2.8803   10.6113 C   0  0  0  0  0  0  0  0  0  0  0  0
   20.6874   -2.3185    9.5129 O   0  0  0  0  0  0  0  0  0  0  0  0
   17.7871   -1.6040    9.0466 N   0  0  0  0  0  0  0  0  0  0  0  0
   17.2491   -0.4974    8.5071 C   0  0  0  0  0  0  0  0  0  0  0  0
   16.0082   -0.0754    8.8346 N   0  0  0  0  0  0  0  0  0  0  0  0
   15.2910   -0.7843    9.7267 C   0  0  0  0  0  0  0  0  0  0  0  0
   14.1120   -0.6478   10.2330 O   0  0  0  0  0  0  0  0  0  0  0  0
   13.8263   -1.6007   11.0825 C   0  0  0  0  0  0  0  0  0  0  0  0
   12.5605   -1.6901   11.7999 C   0  0  0  0  0  0  0  0  0  0  0  0
   12.1923   -2.9678   12.2318 C   0  0  0  0  0  0  0  0  0  0  0  0
   11.0157   -3.1755   12.9226 C   0  0  0  0  0  0  0  0  0  0  0  0
   10.1869   -2.0862   13.1894 C   0  0  0  0  0  0  0  0  0  0  0  0
    9.0236   -2.3501   13.8830 O   0  0  0  0  0  0  0  0  0  0  0  0
    8.1043   -1.3266   14.2082 C   0  0  0  0  0  0  0  0  0  0  0  0
   10.5649   -0.8354   12.7568 C   0  0  0  0  0  0  0  0  0  0  0  0
   11.7506   -0.6136   12.0584 C   0  0  0  0  0  0  0  0  0  0  0  0
  1  2  1  0
  2  3  1  0
  3  4  2  0
  4  5  1  0
  3  6  1  0
  6  7  2  0
  5  8  2  0
  7  8  1  0
  8  9  1  0
  9 10  1  0
 10 11  2  0
 11 12  1  0
 12 13  1  0
 13 14  1  0
 14 15  1  0
 11 16  1  0
 16 17  2  0
 17 18  1  0
 10 19  1  0
 18 19  2  0
 19 20  1  0
  9 21  2  0
 20 21  1  0
 21 22  1  0
 22 23  2  0
 23 24  1  0
 24 25  2  0
 25 26  1  0
 26 27  1  0
 25 28  1  0
 22 29  1  0
 28 29  2  0
M  END
$$$$
