2BR1_PFP_A_1277
     RDKit          3D

 29 32  0  0  0  0  0  0  0  0999 V2000
   17.4226   -8.2345   12.9773 C   0  0  0  0  0  0  0  0  0  0  0  0
   18.3611   -7.1650   12.9785 O   0  0  0  0  0  0  0  0  0  0  0  0
   18.0752   -5.9761   12.3177 C   0  0  0  0  0  0  0  0  0  0  0  0
   18.5432   -4.7635   12.7764 C   0  0  0  0  0  0  0  0  0  0  0  0
   18.2695   -3.5630   12.1316 C   0  0  0  0  0  0  0  0  0  0  0  0
   17.3079   -5.9947   11.1771 C   0  0  0  0  0  0  0  0  0  0  0  0
   17.0188   -4.8259   10.5155 C   0  0  0  0  0  0  0  0  0  0  0  0
   17.4866   -3.5814   10.9677 C   0  0  0  0  0  0  0  0  0  0  0  0
   17.1468   -2.3781   10.2571 C   0  0  0  0  0  0  0  0  0  0  0  0
   15.9701   -1.6711   10.1591 C   0  0  0  0  0  0  0  0  0  0  0  0
   14.7283   -1.8928   10.7167 C   0  0  0  0  0  0  0  0  0  0  0  0
   14.4393   -2.9966   11.5671 N   0  0  0  0  0  0  0  0  0  0  0  0
   13.1202   -3.2532   12.1148 C   0  0  0  0  0  0  0  0  0  0  0  0
   12.9979   -2.4384   13.3922 C   0  0  0  0  0  0  0  0  0  0  0  0
   12.2300   -1.2906   13.1649 O   0  0  0  0  0  0  0  0  0  0  0  0
   13.7704   -0.9886   10.4132 N   0  0  0  0  0  0  0  0  0  0  0  0
   14.0070    0.0665    9.6158 C   0  0  0  0  0  0  0  0  0  0  0  0
   15.2217    0.2875    9.0673 N   0  0  0  0  0  0  0  0  0  0  0  0
   16.2229   -0.5742    9.3276 C   0  0  0  0  0  0  0  0  0  0  0  0
   17.4601   -0.6387    8.9668 O   0  0  0  0  0  0  0  0  0  0  0  0
   18.0695   -1.6779    9.4769 C   0  0  0  0  0  0  0  0  0  0  0  0
   19.4717   -1.9921    9.2325 C   0  0  0  0  0  0  0  0  0  0  0  0
   19.8459   -3.3220    9.4470 C   0  0  0  0  0  0  0  0  0  0  0  0
   21.1464   -3.7381    9.2467 C   0  0  0  0  0  0  0  0  0  0  0  0
   22.0960   -2.8088    8.8232 C   0  0  0  0  0  0  0  0  0  0  0  0
   23.3803   -3.2781    8.6383 O   0  0  0  0  0  0  0  0  0  0  0  0
   24.3919   -2.4702    8.0703 C   0  0  0  0  0  0  0  0  0  0  0  0
   21.7103   -1.5037    8.6169 C   0  0  0  0  0  0  0  0  0  0  0  0
   20.4000   -1.0721    8.8159 C   0  0  0  0  0  0  0  0  0  0  0  0
  1  2  1  0
  2  3  1  0
  3  4  2  0
  4  5  1  0
  3  6  1  0
  6  7  2  0
  5  8  2  0
  7  8  1  0
  8  9  1  0
  9 10  1  0
 10 11  2  0
 11 12  1  0
 12 13  1  0
 13 14  1  0
 14 15  1  0
 11 16  1  0
 16 17  2  0
 17 18  1  0
 10 19  1  0
 18 19  2  0
 19 20  1  0
  9 21  2  0
 20 21  1  0
 21 22  1  0
 22 23  2  0
 23 24  1  0
 24 25  2  0
 25 26  1  0
 26 27  1  0
 25 28  1  0
 22 29  1  0
 28 29  2  0
M  END
$$$$
