2BR1_PFP_A_1277
     RDKit          3D

 29 32  0  0  0  0  0  0  0  0999 V2000
   19.3422   -8.2731   12.5638 C   0  0  0  0  0  0  0  0  0  0  0  0
   18.7251   -7.1709   13.2185 O   0  0  0  0  0  0  0  0  0  0  0  0
   18.3569   -6.0402   12.4989 C   0  0  0  0  0  0  0  0  0  0  0  0
   17.5197   -6.1192   11.4068 C   0  0  0  0  0  0  0  0  0  0  0  0
   17.1388   -5.0019   10.6731 C   0  0  0  0  0  0  0  0  0  0  0  0
   18.8319   -4.8058   12.8740 C   0  0  0  0  0  0  0  0  0  0  0  0
   18.4748   -3.6812   12.1703 C   0  0  0  0  0  0  0  0  0  0  0  0
   17.6231   -3.7421   11.0554 C   0  0  0  0  0  0  0  0  0  0  0  0
   17.2875   -2.5440   10.3340 C   0  0  0  0  0  0  0  0  0  0  0  0
   16.1275   -1.8062   10.2689 C   0  0  0  0  0  0  0  0  0  0  0  0
   14.9040   -1.9817   10.8807 C   0  0  0  0  0  0  0  0  0  0  0  0
   14.6200   -3.0599   11.7650 N   0  0  0  0  0  0  0  0  0  0  0  0
   13.4397   -3.1060   12.6078 C   0  0  0  0  0  0  0  0  0  0  0  0
   12.3700   -2.2657   11.9293 C   0  0  0  0  0  0  0  0  0  0  0  0
   11.2082   -2.2355   12.7092 O   0  0  0  0  0  0  0  0  0  0  0  0
   13.9597   -1.0571   10.5973 N   0  0  0  0  0  0  0  0  0  0  0  0
   14.1921   -0.0251    9.7691 C   0  0  0  0  0  0  0  0  0  0  0  0
   15.3889    0.1508    9.1674 N   0  0  0  0  0  0  0  0  0  0  0  0
   16.3760   -0.7335    9.4051 C   0  0  0  0  0  0  0  0  0  0  0  0
   17.5952   -0.8400    8.9960 O   0  0  0  0  0  0  0  0  0  0  0  0
   18.1963   -1.8856    9.5028 C   0  0  0  0  0  0  0  0  0  0  0  0
   19.5782   -2.2440    9.2085 C   0  0  0  0  0  0  0  0  0  0  0  0
   20.3708   -1.2272    8.6676 C   0  0  0  0  0  0  0  0  0  0  0  0
   21.6955   -1.4483    8.3499 C   0  0  0  0  0  0  0  0  0  0  0  0
   22.2435   -2.7106    8.5759 C   0  0  0  0  0  0  0  0  0  0  0  0
   23.5716   -2.8767    8.2407 O   0  0  0  0  0  0  0  0  0  0  0  0
   24.1843   -4.1507    8.2419 C   0  0  0  0  0  0  0  0  0  0  0  0
   21.4488   -3.6999    9.1089 C   0  0  0  0  0  0  0  0  0  0  0  0
   20.1099   -3.4883    9.4337 C   0  0  0  0  0  0  0  0  0  0  0  0
  1  2  1  0
  2  3  1  0
  3  4  2  0
  4  5  1  0
  3  6  1  0
  6  7  2  0
  5  8  2  0
  7  8  1  0
  8  9  1  0
  9 10  1  0
 10 11  2  0
 11 12  1  0
 12 13  1  0
 13 14  1  0
 14 15  1  0
 11 16  1  0
 16 17  2  0
 17 18  1  0
 10 19  1  0
 18 19  2  0
 19 20  1  0
  9 21  2  0
 20 21  1  0
 21 22  1  0
 22 23  2  0
 23 24  1  0
 24 25  2  0
 25 26  1  0
 26 27  1  0
 25 28  1  0
 22 29  1  0
 28 29  2  0
M  END
$$$$
