7EN7_J79_A_301
     RDKit          3D

 44 44  0  0  0  0  0  0  0  0999 V2000
    0.4844   -2.4178   -0.6309 C   0  0  2  0  0  0  0  0  0  0  0  0
   -0.1958   -2.6188   -1.9951 C   0  0  2  0  0  0  0  0  0  0  0  0
    0.1379   -3.9266   -3.9227 C   0  0  1  0  0  0  0  0  0  0  0  0
   -0.9772   -3.1163   -4.5779 C   0  0  0  0  0  0  0  0  0  0  0  0
    1.1524   -4.3177   -4.9593 C   0  0  0  0  0  0  0  0  0  0  0  0
   -1.3255   -3.6400   -1.8321 C   0  0  1  0  0  0  0  0  0  0  0  0
   -1.3138   -3.6570   -4.3774 C   0  0  0  0  0  0  0  0  0  0  0  0
    0.1575   -3.8859   -4.4957 C   0  0  0  0  0  0  0  0  0  0  0  0
   -2.3690   -3.1310   -0.8054 C   0  0  1  0  0  0  0  0  0  0  0  0
   -0.5615   -2.2710    0.5186 C   0  0  2  0  0  0  0  0  0  0  0  0
   -0.4436   -3.3521    1.6144 C   0  0  0  0  0  0  0  0  0  0  0  0
   -1.9727   -3.8881   -3.1248 N   0  0  0  0  0  0  0  0  0  0  0  0
    1.3005   -1.2757   -0.6930 O   0  0  0  0  0  0  0  0  0  0  0  0
    0.7506   -3.1290   -2.9247 O   0  0  0  0  0  0  0  0  0  0  0  0
    1.3912   -5.5347   -5.1815 O   0  0  0  0  0  0  0  0  0  0  0  0
    1.8225   -3.3354   -5.6828 O   0  0  0  0  0  0  0  0  0  0  0  0
   -1.9619   -3.2416   -5.3759 O   0  0  0  0  0  0  0  0  0  0  0  0
   -2.8834   -4.2039   -0.0617 O   0  0  0  0  0  0  0  0  0  0  0  0
   -1.8974   -2.1030    0.0602 O   0  0  0  0  0  0  0  0  0  0  0  0
   -1.6519   -4.0617    1.7553 O   0  0  0  0  0  0  0  0  0  0  0  0
   -2.4839   -2.3979   -0.3228 O   0  0  0  0  0  0  0  0  0  0  0  0
   -4.1081   -4.4481    0.5519 O   0  0  0  0  0  0  0  0  0  0  0  0
   -1.8818   -4.9178   -0.7271 O   0  0  0  0  0  0  0  0  0  0  0  0
   -2.5053   -3.9795    0.2820 P   0  0  2  0  0  5  0  0  0  0  0  0
    1.1316   -3.3078   -0.4430 H   0  0  0  0  0  0  0  0  0  0  0  0
   -0.6606   -1.6552   -2.3233 H   0  0  0  0  0  0  0  0  0  0  0  0
   -0.3401   -4.8404   -3.4968 H   0  0  0  0  0  0  0  0  0  0  0  0
   -0.5725   -2.1822   -5.0240 H   0  0  0  0  0  0  0  0  0  0  0  0
   -1.7381   -2.8439   -3.8158 H   0  0  0  0  0  0  0  0  0  0  0  0
   -1.4733   -3.7139   -5.3727 H   0  0  0  0  0  0  0  0  0  0  0  0
   -0.8689   -4.5865   -1.4649 H   0  0  0  0  0  0  0  0  0  0  0  0
    0.4086   -4.9001   -4.1209 H   0  0  0  0  0  0  0  0  0  0  0  0
    0.6991   -3.1286   -3.8912 H   0  0  0  0  0  0  0  0  0  0  0  0
    0.4822   -3.8045   -5.5550 H   0  0  0  0  0  0  0  0  0  0  0  0
   -3.2113   -2.6816   -1.3798 H   0  0  0  0  0  0  0  0  0  0  0  0
   -0.3253   -1.3213    1.0486 H   0  0  0  0  0  0  0  0  0  0  0  0
    0.3725   -4.0498    1.3176 H   0  0  0  0  0  0  0  0  0  0  0  0
   -0.1582   -2.8476    2.5661 H   0  0  0  0  0  0  0  0  0  0  0  0
   -2.8915   -4.3873   -3.1368 H   0  0  0  0  0  0  0  0  0  0  0  0
    1.9401   -1.3388    0.0640 H   0  0  0  0  0  0  0  0  0  0  0  0
    2.5108   -3.5844   -6.3831 H   0  0  0  0  0  0  0  0  0  0  0  0
   -3.6169   -3.8356    0.4965 H   0  0  0  0  0  0  0  0  0  0  0  0
   -3.0519   -2.4296   -1.1335 H   0  0  0  0  0  0  0  0  0  0  0  0
   -4.4415   -3.8170    1.2383 H   0  0  0  0  0  0  0  0  0  0  0  0
  1  2  1  0
  3  4  1  0
  3  5  1  0
  2  6  1  0
  7  8  1  0
  6  9  1  0
  1 10  1  0
 10 11  1  0
  6 12  1  0
  7 12  1  0
  1 13  1  0
  3 14  1  0
  2 14  1  0
  5 15  2  0
  5 16  1  0
  7 17  2  0
  9 18  1  0
 10 19  1  0
  9 19  1  0
 11 20  1  0
 23 24  2  0
 24 21  1  1
 20 24  1  0
 22 24  1  0
  1 25  1  6
  2 26  1  1
  3 27  1  6
  4 28  1  0
  4 29  1  0
  4 30  1  0
  6 31  1  6
  8 32  1  0
  8 33  1  0
  8 34  1  0
  9 35  1  1
 10 36  1  6
 11 37  1  0
 11 38  1  0
 12 39  1  0
 13 40  1  0
 16 41  1  0
 18 42  1  0
 21 43  1  0
 22 44  1  0
M  END
