1L2S_STC_B_2115
     RDKit          3D

 27 28  0  0  0  0  0  0  0  0999 V2000
   57.3685    4.4050   22.1749 N   0  0  0  0  0  0  0  0  0  0  0  0
   56.1167    4.8322   22.7369 C   0  0  0  0  0  0  0  0  0  0  0  0
   54.9835    4.0167   22.5889 C   0  0  0  0  0  0  0  0  0  0  0  0
   55.9933    6.0562   23.4204 C   0  0  0  0  0  0  0  0  0  0  0  0
   53.7552    4.4042   23.1325 C   0  0  0  0  0  0  0  0  0  0  0  0
   54.7638    6.4409   23.9634 C   0  0  0  0  0  0  0  0  0  0  0  0
   53.6448    5.6148   23.8228 C   0  0  0  0  0  0  0  0  0  0  0  0
   52.1035    6.0997   24.5053 Cl  0  0  0  0  0  0  0  0  0  0  0  0
   58.5935    5.5056   21.6271 S   0  0  2  0  0  6  0  0  0  0  0  0
   59.2915    6.3774   22.9934 C   0  0  0  0  0  0  0  0  0  0  0  0
   57.9815    6.4706   20.6506 O   0  0  0  0  0  0  0  0  0  0  0  0
   59.6830    4.7411   20.9297 O   0  0  0  0  0  0  0  0  0  0  0  0
   60.2586    5.8669   23.8697 C   0  0  0  0  0  0  0  0  0  0  0  0
   58.8646    7.6706   23.3358 C   0  0  0  0  0  0  0  0  0  0  0  0
   60.5494    7.0324   25.0493 S   0  0  0  0  0  0  0  0  0  0  0  0
   60.9415    4.5606   23.8287 C   0  0  0  0  0  0  0  0  0  0  0  0
   59.4764    8.1842   24.4692 C   0  0  0  0  0  0  0  0  0  0  0  0
   60.2720    3.4119   23.4238 O   0  0  0  0  0  0  0  0  0  0  0  0
   62.1576    4.4847   24.1497 O   0  0  0  0  0  0  0  0  0  0  0  0
   57.6252    3.3934   22.2204 H   0  0  0  0  0  0  0  0  0  0  0  0
   55.0555    3.0741   22.0610 H   0  0  0  0  0  0  0  0  0  0  0  0
   56.8366    6.7236   23.5260 H   0  0  0  0  0  0  0  0  0  0  0  0
   52.8909    3.7624   23.0173 H   0  0  0  0  0  0  0  0  0  0  0  0
   54.6813    7.3835   24.4894 H   0  0  0  0  0  0  0  0  0  0  0  0
   58.1162    8.2195   22.7796 H   0  0  0  0  0  0  0  0  0  0  0  0
   59.2878    9.1559   24.9050 H   0  0  0  0  0  0  0  0  0  0  0  0
   60.5734    2.4962   23.7346 H   0  0  0  0  0  0  0  0  0  0  0  0
  1  2  1  0
  2  3  2  0
  2  4  1  0
  3  5  1  0
  4  6  2  0
  5  7  2  0
  6  7  1  0
  7  8  1  0
  9  1  1  1
  9 10  1  0
  9 11  2  0
  9 12  2  0
 10 13  2  0
 10 14  1  0
 13 15  1  0
 13 16  1  0
 14 17  2  0
 15 17  1  0
 16 18  1  0
 16 19  2  0
  1 20  1  0
  3 21  1  0
  4 22  1  0
  5 23  1  0
  6 24  1  0
 14 25  1  0
 17 26  1  0
 18 27  1  0
M  END
