7L7C_XQ1_A_201
     RDKit          3D

 21 23  0  0  0  0  0  0  0  0999 V2000
   18.2368  -11.0359    0.4476 C   0  0  0  0  0  0  0  0  0  0  0  0
   18.0775  -12.3944    0.4599 C   0  0  0  0  0  0  0  0  0  0  0  0
   19.1845   -8.0873    2.6144 C   0  0  0  0  0  0  0  0  0  0  0  0
   18.5806  -10.2858    1.5702 C   0  0  0  0  0  0  0  0  0  0  0  0
   19.1375   -6.7085    2.6103 C   0  0  0  0  0  0  0  0  0  0  0  0
   18.5956  -12.4138    2.7657 C   0  0  0  0  0  0  0  0  0  0  0  0
   18.2528  -13.1184    1.6108 C   0  0  0  0  0  0  0  0  0  0  0  0
   18.6633   -8.8441    1.5689 C   0  0  0  0  0  0  0  0  0  0  0  0
   19.0985  -12.7418    5.1445 C   0  0  0  0  0  0  0  0  0  0  0  0
   18.7564  -13.1966    3.8833 O   0  0  0  0  0  0  0  0  0  0  0  0
   18.3650   -4.7218    1.2591 C   0  0  0  0  0  0  0  0  0  0  0  0
   18.7440   -3.5052    2.0080 C   0  0  0  0  0  0  0  0  0  0  0  0
   17.5086   -2.7052    2.3153 C   0  0  0  0  0  0  0  0  0  0  0  0
   17.7337   -4.6888    0.0525 C   0  0  0  0  0  0  0  0  0  0  0  0
   18.0393   -6.7656    0.5155 C   0  0  0  0  0  0  0  0  0  0  0  0
   18.0895   -8.1407    0.5230 C   0  0  0  0  0  0  0  0  0  0  0  0
   18.7553  -11.0337    2.7446 C   0  0  0  0  0  0  0  0  0  0  0  0
   18.5588   -6.0558    1.5517 C   0  0  0  0  0  0  0  0  0  0  0  0
   16.4143   -2.9790    1.7078 O   0  0  0  0  0  0  0  0  0  0  0  0
   17.4586   -1.6650    3.2153 O   0  0  0  0  0  0  0  0  0  0  0  0
   17.5573   -5.9362   -0.3566 O   0  0  0  0  0  0  0  0  0  0  0  0
  1  2  2  0
  1  4  1  0
  3  5  2  0
  6  7  2  0
  2  7  1  0
  3  8  1  0
  4  8  1  0
  9 10  1  0
  6 10  1  0
 11 12  1  0
 12 13  1  0
 11 14  2  0
 15 16  1  0
  8 16  2  0
  4 17  2  0
  6 17  1  0
 11 18  1  0
  5 18  1  0
 15 18  2  0
 13 19  2  0
 13 20  1  0
 14 21  1  0
 15 21  1  0
M  END
$$$$
