5SAK_ZRY_A_404
     RDKit          3D

 18 20  0  0  0  0  0  0  0  0999 V2000
   24.9911   11.7301   61.2621 N   0  0  0  0  0  0  0  0  0  0  0  0
   27.6559   10.8080   63.5098 C   0  0  0  0  0  0  0  0  0  0  0  0
   29.9630    9.7795   66.1481 C   0  0  0  0  0  0  0  0  0  0  0  0
   28.1102   10.4379   64.6639 N   0  0  0  0  0  0  0  0  0  0  0  0
   29.2148   10.1129   67.2725 C   0  0  0  0  0  0  0  0  0  0  0  0
   27.4498   11.4413   61.3012 C   0  0  0  0  0  0  0  0  0  0  0  0
   29.7378   10.9965   61.9749 C   0  0  0  0  0  0  0  0  0  0  0  0
   28.3805   11.0677   62.2730 C   0  0  0  0  0  0  0  0  0  0  0  0
   29.4794   10.1673   64.8635 N   0  0  0  0  0  0  0  0  0  0  0  0
   30.1518   11.3081   60.6774 C   0  0  0  0  0  0  0  0  0  0  0  0
   29.2177   11.6817   59.7069 C   0  0  0  0  0  0  0  0  0  0  0  0
   27.8762   11.7488   60.0131 C   0  0  0  0  0  0  0  0  0  0  0  0
   26.2805   11.0409   63.2297 N   0  0  0  0  0  0  0  0  0  0  0  0
   26.1106   11.4354   61.8707 C   0  0  0  0  0  0  0  0  0  0  0  0
   29.6662    9.7456   68.5329 C   0  0  0  0  0  0  0  0  0  0  0  0
   30.8701    9.0470   68.6173 C   0  0  0  0  0  0  0  0  0  0  0  0
   31.6027    8.7234   67.4838 C   0  0  0  0  0  0  0  0  0  0  0  0
   31.1519    9.0893   66.2349 C   0  0  0  0  0  0  0  0  0  0  0  0
  2  4  2  0
  3  5  2  0
  7  8  2  0
  6  8  1  0
  2  8  1  0
  4  9  1  0
  3  9  1  0
  7 10  1  0
 10 11  2  0
  6 12  2  0
 11 12  1  0
  2 13  1  0
 13 14  1  0
  1 14  2  0
  6 14  1  0
  5 15  1  0
 15 16  2  0
 16 17  1  0
 17 18  2  0
  3 18  1  0
M  END
$$$$
