7B0E_C2E_A_401
     RDKit          3D

 70 76  0  0  0  0  0  0  0  0999 V2000
  -10.7472   -4.5216    7.1987 P   0  0  2  0  0  5  0  0  0  0  0  0
  -12.0245   -3.9157    8.1292 O   0  0  0  0  0  0  0  0  0  0  0  0
   -9.4435   -3.9909    7.7585 O   0  0  0  0  0  0  0  0  0  0  0  0
  -10.9568   -4.0003    5.5882 O   0  0  0  0  0  0  0  0  0  0  0  0
   -9.7225   -4.0918    4.9169 C   0  0  0  0  0  0  0  0  0  0  0  0
   -9.9453   -4.0384    3.4060 C   0  0  2  0  0  0  0  0  0  0  0  0
  -10.7275   -2.9235    3.0701 O   0  0  0  0  0  0  0  0  0  0  0  0
  -10.6353   -5.2952    2.8717 C   0  0  2  0  0  0  0  0  0  0  0  0
   -9.6618   -6.1765    2.3326 O   0  0  0  0  0  0  0  0  0  0  0  0
  -11.5695   -4.7525    1.8053 C   0  0  2  0  0  0  0  0  0  0  0  0
  -11.2911   -5.2626    0.5228 O   0  0  0  0  0  0  0  0  0  0  0  0
  -11.3383   -3.2426    1.8445 C   0  0  1  0  0  0  0  0  0  0  0  0
  -12.5999   -2.5100    1.7199 N   0  0  0  0  0  4  0  0  0  0  0  0
  -13.8176   -2.8859    2.1938 C   0  0  0  0  0  0  0  0  0  0  0  0
  -14.8172   -2.0144    1.8722 N   0  0  0  0  0  0  0  0  0  0  0  0
  -14.1619   -1.0586    1.1769 C   0  0  0  0  0  0  0  0  0  0  0  0
  -14.6549    0.0992    0.5803 C   0  0  0  0  0  0  0  0  0  0  0  0
  -15.8814    0.3909    0.6347 O   0  0  0  0  0  0  0  0  0  0  0  0
  -13.7673    0.9168   -0.0687 N   0  0  0  0  0  4  0  0  0  0  0  0
  -12.4272    0.6082   -0.1265 C   0  0  0  0  0  0  0  0  0  0  0  0
  -11.5210    1.4845   -0.8029 N   0  0  0  0  0  0  0  0  0  0  0  0
  -11.9550   -0.5436    0.4548 N   0  0  0  0  0  0  0  0  0  0  0  0
  -12.8435   -1.3507    1.0889 C   0  0  0  0  0  0  0  0  0  0  0  0
   -9.8533   -7.7543    2.9728 P   0  0  1  0  0  5  0  0  0  0  0  0
  -11.0831   -8.5486    2.1152 O   0  0  0  0  0  0  0  0  0  0  0  0
   -8.5614   -8.5169    2.7738 O   0  0  0  0  0  0  0  0  0  0  0  0
  -10.1899   -7.6903    4.6518 O   0  0  0  0  0  0  0  0  0  0  0  0
  -11.4274   -8.3340    4.8845 C   0  0  0  0  0  0  0  0  0  0  0  0
  -11.8439   -8.1842    6.3500 C   0  0  2  0  0  0  0  0  0  0  0  0
  -13.0904   -8.8228    6.5436 O   0  0  0  0  0  0  0  0  0  0  0  0
  -11.9763   -6.7220    6.7752 C   0  0  2  0  0  0  0  0  0  0  0  0
  -10.7336   -6.2308    7.2497 O   0  0  0  0  0  0  0  0  0  0  0  0
  -13.0283   -6.8088    7.8664 C   0  0  2  0  0  0  0  0  0  0  0  0
  -12.4629   -6.9031    9.1547 O   0  0  0  0  0  0  0  0  0  0  0  0
  -13.8081   -8.0825    7.5125 C   0  0  1  0  0  0  0  0  0  0  0  0
  -15.1361   -7.7373    6.9945 N   0  0  0  0  0  4  0  0  0  0  0  0
  -15.4062   -7.2249    5.7704 C   0  0  0  0  0  0  0  0  0  0  0  0
  -16.7351   -7.1952    5.4719 N   0  0  0  0  0  0  0  0  0  0  0  0
  -17.2956   -7.7229    6.5711 C   0  0  0  0  0  0  0  0  0  0  0  0
  -18.6304   -7.9983    6.8304 C   0  0  0  0  0  0  0  0  0  0  0  0
  -19.5299   -7.7203    5.9960 O   0  0  0  0  0  0  0  0  0  0  0  0
  -18.9438   -8.5926    8.0198 N   0  0  0  0  0  4  0  0  0  0  0  0
  -17.9645   -8.9145    8.9272 C   0  0  0  0  0  0  0  0  0  0  0  0
  -18.3133   -9.5414   10.1601 N   0  0  0  0  0  0  0  0  0  0  0  0
  -16.6494   -8.6478    8.6506 N   0  0  0  0  0  0  0  0  0  0  0  0
  -16.3492   -8.0510    7.4749 C   0  0  0  0  0  0  0  0  0  0  0  0
  -11.7629   -4.0855    9.0662 H   0  0  0  0  0  0  0  0  0  0  0  0
   -9.1837   -5.0444    5.1381 H   0  0  0  0  0  0  0  0  0  0  0  0
   -9.0861   -3.2266    5.1985 H   0  0  0  0  0  0  0  0  0  0  0  0
   -8.9543   -3.9302    2.9233 H   0  0  0  0  0  0  0  0  0  0  0  0
  -11.2678   -5.7358    3.6752 H   0  0  0  0  0  0  0  0  0  0  0  0
  -12.6223   -4.9942    2.0914 H   0  0  0  0  0  0  0  0  0  0  0  0
  -11.6244   -6.1968    0.5193 H   0  0  0  0  0  0  0  0  0  0  0  0
  -10.6477   -2.9291    1.0230 H   0  0  0  0  0  0  0  0  0  0  0  0
  -13.9806   -3.7902    2.7675 H   0  0  0  0  0  0  0  0  0  0  0  0
  -14.1145    1.7921   -0.5270 H   0  0  0  0  0  0  0  0  0  0  0  0
  -10.5089    1.2380   -0.8721 H   0  0  0  0  0  0  0  0  0  0  0  0
  -11.8622    2.3656   -1.2426 H   0  0  0  0  0  0  0  0  0  0  0  0
  -10.9058   -8.3440    1.1672 H   0  0  0  0  0  0  0  0  0  0  0  0
  -11.3348   -9.4257    4.6678 H   0  0  0  0  0  0  0  0  0  0  0  0
  -12.2346   -7.8969    4.2558 H   0  0  0  0  0  0  0  0  0  0  0  0
  -11.0881   -8.6961    6.9877 H   0  0  0  0  0  0  0  0  0  0  0  0
  -12.3781   -6.1356    5.9072 H   0  0  0  0  0  0  0  0  0  0  0  0
  -13.6803   -5.9074    7.8373 H   0  0  0  0  0  0  0  0  0  0  0  0
  -11.8576   -7.6897    9.1758 H   0  0  0  0  0  0  0  0  0  0  0  0
  -13.9360   -8.7214    8.4201 H   0  0  0  0  0  0  0  0  0  0  0  0
  -14.6375   -6.9069    5.0752 H   0  0  0  0  0  0  0  0  0  0  0  0
  -19.9434   -8.8134    8.2372 H   0  0  0  0  0  0  0  0  0  0  0  0
  -19.2856   -9.8548   10.3580 H   0  0  0  0  0  0  0  0  0  0  0  0
  -17.5754   -9.7614   10.8575 H   0  0  0  0  0  0  0  0  0  0  0  0
  1  2  1  6
  1  3  2  0
  1  4  1  0
  4  5  1  0
  6  5  1  0
  6  7  1  0
  6  8  1  0
  8  9  1  0
  8 10  1  0
 10 11  1  0
 10 12  1  0
  7 12  1  0
 12 13  1  0
 13 14  4  0
 14 15  4  0
 15 16  4  0
 16 17  4  0
 17 18  2  0
 17 19  4  0
 19 20  4  0
 20 21  1  0
 20 22  4  0
 13 23  4  0
 22 23  4  0
 16 23  4  0
  9 24  1  0
 24 25  1  1
 24 26  2  0
 24 27  1  0
 27 28  1  0
 29 28  1  0
 29 30  1  0
 29 31  1  0
 31 32  1  0
  1 32  1  0
 31 33  1  0
 33 34  1  0
 30 35  1  0
 33 35  1  0
 35 36  1  0
 36 37  4  0
 37 38  4  0
 38 39  4  0
 39 40  4  0
 40 41  2  0
 40 42  4  0
 42 43  4  0
 43 44  1  0
 43 45  4  0
 36 46  4  0
 39 46  4  0
 45 46  4  0
  2 47  1  0
  5 48  1  0
  5 49  1  0
  6 50  1  1
  8 51  1  6
 10 52  1  6
 11 53  1  0
 12 54  1  1
 14 55  1  0
 19 56  1  0
 21 57  1  0
 21 58  1  0
 25 59  1  0
 28 60  1  0
 28 61  1  0
 29 62  1  6
 31 63  1  1
 33 64  1  6
 34 65  1  0
 35 66  1  6
 37 67  1  0
 42 68  1  0
 44 69  1  0
 44 70  1  0
M  CHG  4  13   1  19   1  36   1  42   1
M  END
