@<TRIPOS>MOLECULE
1N2J_PAF_A_1001
 21 20 0 0 0
SMALL
GASTEIGER

@<TRIPOS>ATOM
      1 O          -2.8550    0.0020   -0.9552 O.co2   1  UNL1       -0.5471
      2 C          -2.0512   -0.7146   -0.0763 C.2     1  UNL1        0.0707
      3 O          -2.3070   -1.9282    0.1429 O.co2   1  UNL1       -0.5471
      4 C          -0.8658   -0.0583    0.5955 C.3     1  UNL1        0.1014
      5 O          -1.2151    1.2226    1.0635 O.3     1  UNL1       -0.3854
      6 C           0.4324   -0.0391   -0.2896 C.3     1  UNL1        0.0194
      7 C           0.8317   -1.4906   -0.6483 C.3     1  UNL1       -0.0550
      8 C           0.2310    0.7456   -1.6084 C.3     1  UNL1       -0.0550
      9 C           1.6094    0.5869    0.5064 C.3     1  UNL1        0.0520
     10 O           1.3776    1.9434    0.7766 O.3     1  UNL1       -0.3944
     11 H          -0.6377   -0.6642    1.5008 H       1  UNL1        0.0661
     12 H          -1.5252    1.7640    0.2931 H       1  UNL1        0.2103
     13 H           0.9647   -2.1006    0.2712 H       1  UNL1        0.0237
     14 H           1.7869   -1.5095   -1.2167 H       1  UNL1        0.0237
     15 H           0.0580   -1.9750   -1.2811 H       1  UNL1        0.0237
     16 H          -0.0367    1.8053   -1.4188 H       1  UNL1        0.0237
     17 H          -0.5660    0.2861   -2.2294 H       1  UNL1        0.0237
     18 H           1.1673    0.7405   -2.2075 H       1  UNL1        0.0237
     19 H           1.7495    0.0373    1.4652 H       1  UNL1        0.0563
     20 H           2.5532    0.4936   -0.0785 H       1  UNL1        0.0563
     21 H           2.1627    2.2608    1.2941 H       1  UNL1        0.2094
@<TRIPOS>UNITY_ATOM_ATTR
1 1
charge -1
@<TRIPOS>BOND
     1     1     2   ar
     2     2     3   ar
     3     2     4    1
     4     4     5    1
     5     4     6    1
     6     6     7    1
     7     6     8    1
     8     6     9    1
     9     9    10    1
    10     4    11    1
    11     5    12    1
    12     7    13    1
    13     7    14    1
    14     7    15    1
    15     8    16    1
    16     8    17    1
    17     8    18    1
    18     9    19    1
    19     9    20    1
    20    10    21    1
