1N2J_PAF_A_1001
     RDKit          3D

 10  9  0  0  0  0  0  0  0  0999 V2000
   33.3200   33.2000   44.9730 O   0  0  0  0  0  0  0  0  0  0  0  0
   33.3260   34.2000   45.8110 C   0  0  0  0  0  0  0  0  0  0  0  0
   33.2480   35.3780   45.4420 O   0  0  0  0  0  0  0  0  0  0  0  0
   33.4000   33.8580   47.3360 C   0  0  2  0  0  0  0  0  0  0  0  0
   34.1460   32.6030   47.4910 O   0  0  0  0  0  0  0  0  0  0  0  0
   31.9500   33.7180   47.9770 C   0  0  0  0  0  0  0  0  0  0  0  0
   31.1660   35.0230   47.8550 C   0  0  0  0  0  0  0  0  0  0  0  0
   31.1820   32.5830   47.3280 C   0  0  0  0  0  0  0  0  0  0  0  0
   32.1890   33.4150   49.4770 C   0  0  0  0  0  0  0  0  0  0  0  0
   32.9210   34.4570   50.1000 O   0  0  0  0  0  0  0  0  0  0  0  0
  1  2  1  0
  2  3  2  0
  2  4  1  0
  4  5  1  6
  4  6  1  0
  6  7  1  0
  6  8  1  0
  6  9  1  0
  9 10  1  0
M  CHG  1   1  -1
M  END
$$$$
1N2J_PAF_B_1002
     RDKit          3D

 10  9  0  0  0  0  0  0  0  0999 V2000
   20.7780   14.8300   73.7550 O   0  0  0  0  0  0  0  0  0  0  0  0
   20.2870   14.0330   72.8030 C   0  0  0  0  0  0  0  0  0  0  0  0
   19.2380   13.3420   72.9650 O   0  0  0  0  0  0  0  0  0  0  0  0
   21.0520   13.9940   71.4160 C   0  0  2  0  0  0  0  0  0  0  0  0
   22.4350   14.3780   71.6440 O   0  0  0  0  0  0  0  0  0  0  0  0
   20.3410   14.9660   70.3770 C   0  0  0  0  0  0  0  0  0  0  0  0
   18.8670   14.4990   70.1490 C   0  0  0  0  0  0  0  0  0  0  0  0
   20.3710   16.4160   70.8780 C   0  0  0  0  0  0  0  0  0  0  0  0
   21.1120   14.8730   69.0740 C   0  0  0  0  0  0  0  0  0  0  0  0
   21.1400   13.5540   68.5110 O   0  0  0  0  0  0  0  0  0  0  0  0
  1  2  1  0
  2  3  2  0
  2  4  1  0
  4  5  1  1
  4  6  1  0
  6  7  1  0
  6  8  1  0
  6  9  1  0
  9 10  1  0
M  CHG  1   1  -1
M  END
$$$$
