7NLV_UJE_BBB_201
     RDKit          3D

 45 47  0  0  0  0  0  0  0  0999 V2000
    2.7601    3.7286   -1.7754 O   0  0  0  0  0  0  0  0  0  0  0  0
    5.3906    2.3446    0.1558 O   0  0  0  0  0  0  0  0  0  0  0  0
    3.5067    3.2455   -0.8811 C   0  0  0  0  0  0  0  0  0  0  0  0
    3.2108    3.5318    0.5601 C   0  0  0  0  0  0  0  0  0  0  0  0
    1.6985    3.6695    0.7775 C   0  0  0  0  0  0  0  0  0  0  0  0
    1.3339    4.1437    2.1962 C   0  0  0  0  0  0  0  0  0  0  0  0
    1.6511    3.1468    3.3299 C   0  0  0  0  0  0  0  0  0  0  0  0
    1.7618    1.6775    2.8707 C   0  0  2  0  0  0  0  0  0  0  0  0
    2.9509    0.7414    3.8766 S   0  0  0  0  0  0  0  0  0  0  0  0
    2.9572   -0.5515    2.6051 C   0  0  0  0  0  0  0  0  0  0  0  0
    2.8683    0.1261    1.2381 C   0  0  2  0  0  0  0  0  0  0  0  0
    4.2045    0.3949    0.7154 N   0  0  0  0  0  0  0  0  0  0  0  0
    4.3501    1.7885    0.5941 C   0  0  0  0  0  0  0  0  0  0  0  0
    3.2032    2.4936    1.0023 N   0  0  0  0  0  0  0  0  0  0  0  0
    2.1896    1.5169    1.4014 C   0  0  2  0  0  0  0  0  0  0  0  0
    4.6604    2.4717   -1.2391 N   0  0  0  0  0  0  0  0  0  0  0  0
    4.8344    1.0861   -0.7904 C   0  0  1  0  0  0  0  0  0  0  0  0
    4.6996    0.9467    0.7107 C   0  0  0  0  0  0  0  0  0  0  0  0
    4.1872   -0.4706    0.8971 C   0  0  0  0  0  0  0  0  0  0  0  0
    3.5085   -0.8775   -0.3377 N   0  0  0  0  0  0  0  0  0  0  0  0
    3.7414    0.1754   -1.3289 C   0  0  0  0  0  0  0  0  0  0  0  0
    3.6113    2.7014    1.1800 H   0  0  0  0  0  0  0  0  0  0  0  0
    3.7259    4.4695    0.8616 H   0  0  0  0  0  0  0  0  0  0  0  0
    1.1906    2.7092    0.5470 H   0  0  0  0  0  0  0  0  0  0  0  0
    1.2996    4.4219    0.0615 H   0  0  0  0  0  0  0  0  0  0  0  0
    1.8807    5.0896    2.4031 H   0  0  0  0  0  0  0  0  0  0  0  0
    0.2514    4.3926    2.2184 H   0  0  0  0  0  0  0  0  0  0  0  0
    0.8367    3.2314    4.0818 H   0  0  0  0  0  0  0  0  0  0  0  0
    2.5910    3.4499    3.8383 H   0  0  0  0  0  0  0  0  0  0  0  0
    0.7715    1.1857    2.9711 H   0  0  0  0  0  0  0  0  0  0  0  0
    3.8708   -1.1769    2.6961 H   0  0  0  0  0  0  0  0  0  0  0  0
    2.0678   -1.1997    2.7583 H   0  0  0  0  0  0  0  0  0  0  0  0
    2.3091   -0.5120    0.5194 H   0  0  0  0  0  0  0  0  0  0  0  0
    4.9243   -0.3195    0.4660 H   0  0  0  0  0  0  0  0  0  0  0  0
    3.0605    3.5231    0.8991 H   0  0  0  0  0  0  0  0  0  0  0  0
    1.3092    1.6063    0.7275 H   0  0  0  0  0  0  0  0  0  0  0  0
    5.3629    2.9032   -1.8820 H   0  0  0  0  0  0  0  0  0  0  0  0
    5.8335    0.7066   -1.1036 H   0  0  0  0  0  0  0  0  0  0  0  0
    3.9456    1.6608    1.1115 H   0  0  0  0  0  0  0  0  0  0  0  0
    5.6727    1.1040    1.2248 H   0  0  0  0  0  0  0  0  0  0  0  0
    5.0428   -1.1508    1.1135 H   0  0  0  0  0  0  0  0  0  0  0  0
    3.4753   -0.5181    1.7487 H   0  0  0  0  0  0  0  0  0  0  0  0
    3.9491   -1.7629   -0.6830 H   0  0  0  0  0  0  0  0  0  0  0  0
    4.0365   -0.2563   -2.3116 H   0  0  0  0  0  0  0  0  0  0  0  0
    2.7959    0.7450   -1.4649 H   0  0  0  0  0  0  0  0  0  0  0  0
  1  3  2  0
  3  4  1  0
  4  5  1  0
  5  6  1  0
  6  7  1  0
  8  7  1  0
  8  9  1  0
  9 10  1  0
 11 10  1  0
 11 12  1  0
 12 13  1  0
  2 13  2  0
 13 14  1  0
 11 15  1  0
 15 14  1  0
  8 15  1  0
  3 16  1  0
 17 16  1  0
 17 18  1  0
 18 19  1  0
 19 20  1  0
 17 21  1  0
 20 21  1  0
  4 22  1  0
  4 23  1  0
  5 24  1  0
  5 25  1  0
  6 26  1  0
  6 27  1  0
  7 28  1  0
  7 29  1  0
  8 30  1  6
 10 31  1  0
 10 32  1  0
 11 33  1  6
 12 34  1  0
 14 35  1  0
 15 36  1  6
 16 37  1  0
 17 38  1  6
 18 39  1  0
 18 40  1  0
 19 41  1  0
 19 42  1  0
 20 43  1  0
 21 44  1  0
 21 45  1  0
M  END
