1SJ0_E4D_A_600
     RDKit          3D

 33 37  0  0  0  0  0  0  0  0999 V2000
   31.2781   -0.3723   28.3313 C   0  0  2  0  0  0  0  0  0  0  0  0
   31.4171   -1.7810   27.9310 C   0  0  1  0  0  0  0  0  0  0  0  0
   30.1707   -2.4181   28.3391 O   0  0  0  0  0  0  0  0  0  0  0  0
   28.9867   -2.0736   27.6828 C   0  0  0  0  0  0  0  0  0  0  0  0
   27.8974   -2.9519   27.6408 C   0  0  0  0  0  0  0  0  0  0  0  0
   26.7256   -2.6319   27.0007 C   0  0  0  0  0  0  0  0  0  0  0  0
   26.5912   -1.4143   26.3721 C   0  0  0  0  0  0  0  0  0  0  0  0
   25.4528   -1.0075   25.7051 O   0  0  0  0  0  0  0  0  0  0  0  0
   27.6634   -0.5202   26.3997 C   0  0  0  0  0  0  0  0  0  0  0  0
   28.8246   -0.8493   27.0396 C   0  0  0  0  0  0  0  0  0  0  0  0
   30.1802    0.3639   27.0406 S   0  0  0  0  0  0  0  0  0  0  0  0
   32.4618    0.4248   28.5918 C   0  0  0  0  0  0  0  0  0  0  0  0
   33.1833    0.5062   29.7448 C   0  0  0  0  0  0  0  0  0  0  0  0
   34.3189    1.2943   29.8945 C   0  0  0  0  0  0  0  0  0  0  0  0
   34.7644    2.0453   28.8396 C   0  0  0  0  0  0  0  0  0  0  0  0
   35.8845    2.8227   28.9872 O   0  0  0  0  0  0  0  0  0  0  0  0
   34.0669    1.9907   27.6657 C   0  0  0  0  0  0  0  0  0  0  0  0
   32.9479    1.2113   27.5250 C   0  0  0  0  0  0  0  0  0  0  0  0
   31.5205   -2.0891   26.4982 C   0  0  0  0  0  0  0  0  0  0  0  0
   30.5059   -2.1904   25.5942 C   0  0  0  0  0  0  0  0  0  0  0  0
   30.7273   -2.4987   24.2551 C   0  0  0  0  0  0  0  0  0  0  0  0
   31.9995   -2.7125   23.8026 C   0  0  0  0  0  0  0  0  0  0  0  0
   33.0346   -2.6191   24.6767 C   0  0  0  0  0  0  0  0  0  0  0  0
   32.8136   -2.3139   26.0021 C   0  0  0  0  0  0  0  0  0  0  0  0
   32.1611   -3.0165   22.4585 O   0  0  0  0  0  0  0  0  0  0  0  0
   33.2738   -3.7308   21.9502 C   0  0  0  0  0  0  0  0  0  0  0  0
   32.8730   -4.6516   20.8201 C   0  0  0  0  0  0  0  0  0  0  0  0
   33.0383   -3.9227   19.5739 N   0  0  0  0  0  0  0  0  0  0  0  0
   31.9112   -3.0409   19.3338 C   0  0  0  0  0  0  0  0  0  0  0  0
   30.7112   -3.7659   18.8154 C   0  0  0  0  0  0  0  0  0  0  0  0
   31.0629   -4.2431   17.4089 C   0  0  0  0  0  0  0  0  0  0  0  0
   32.5660   -4.2759   17.2265 C   0  0  0  0  0  0  0  0  0  0  0  0
   33.2582   -4.8240   18.4594 C   0  0  0  0  0  0  0  0  0  0  0  0
  1  2  1  0
  2  3  1  0
  3  4  1  0
  4  5  2  0
  5  6  1  0
  6  7  2  0
  7  8  1  0
  7  9  1  0
  4 10  1  0
  9 10  2  0
  1 11  1  0
 10 11  1  0
  1 12  1  6
 12 13  2  0
 13 14  1  0
 14 15  2  0
 15 16  1  0
 15 17  1  0
 12 18  1  0
 17 18  2  0
  2 19  1  6
 19 20  2  0
 20 21  1  0
 21 22  2  0
 22 23  1  0
 19 24  1  0
 23 24  2  0
 22 25  1  0
 26 25  1  6
 26 27  1  0
 27 28  1  1
 29 28  1  6
 30 29  1  6
 31 30  1  1
 31 32  1  0
 33 28  1  1
 32 33  1  1
M  END
$$$$
