1OF1_SCT_B_500
     RDKit          3D

 18 20  0  0  0  0  0  0  0  0999 V2000
   16.2746   21.9630    9.4569 O   0  0  0  0  0  0  0  0  0  0  0  0
   18.0479   18.4451   10.3628 O   0  0  0  0  0  0  0  0  0  0  0  0
   22.5608   20.6414    8.9189 O   0  0  0  0  0  0  0  0  0  0  0  0
   23.7768   24.7967   10.2323 O   0  0  0  0  0  0  0  0  0  0  0  0
   20.9329   22.1745    9.4332 N   0  0  0  0  0  0  0  0  0  0  0  0
   23.2380   22.7061    9.5705 N   0  0  0  0  0  0  0  0  0  0  0  0
   17.7702   20.2871    8.8294 C   0  0  2  0  0  0  0  0  0  0  0  0
   18.2373   19.8191   10.1834 C   0  0  2  0  0  0  0  0  0  0  0  0
   19.7132   20.1510   10.1944 C   0  0  0  0  0  0  0  0  0  0  0  0
   19.9640   21.1587    9.1217 C   0  0  1  0  0  0  0  0  0  0  0  0
   18.7448   21.3427    8.3600 C   0  0  1  0  0  0  0  0  0  0  0  0
   16.3477   20.7409    8.7964 C   0  0  0  0  0  0  0  0  0  0  0  0
   22.2451   21.8182    9.3003 C   0  0  0  0  0  0  0  0  0  0  0  0
   19.9866   20.7225    7.6868 C   0  0  0  0  0  0  0  0  0  0  0  0
   22.8762   23.9341    9.9689 C   0  0  0  0  0  0  0  0  0  0  0  0
   21.5612   24.3332   10.1156 C   0  0  0  0  0  0  0  0  0  0  0  0
   20.5795   23.3899    9.8275 C   0  0  0  0  0  0  0  0  0  0  0  0
   21.2525   25.7053   10.5595 C   0  0  0  0  0  0  0  0  0  0  0  0
  8  2  1  6
  7  8  1  0
  9  8  1  1
 10  5  1  1
  9 10  1  0
  7 11  1  0
 10 11  1  0
 12  1  1  6
  7 12  1  1
  3 13  2  0
  5 13  1  0
  6 13  1  0
 14 10  1  6
 11 14  1  6
  4 15  2  0
  6 15  1  0
 15 16  1  0
  5 17  1  0
 16 17  2  0
 18 16  1  6
M  END
$$$$
