1Q4G_BFL_B_1701
     RDKit          3D

 31 32  0  0  0  0  0  0  0  0999 V2000
   45.2504   29.5525  193.9436 C   0  0  0  0  0  0  0  0  0  0  0  0
   49.5707   28.7318  196.6372 C   0  0  0  0  0  0  0  0  0  0  0  0
   48.4872   27.9165  196.3032 C   0  0  0  0  0  0  0  0  0  0  0  0
   47.3857   28.4537  195.6299 C   0  0  0  0  0  0  0  0  0  0  0  0
   42.7737   32.0832  192.4864 C   0  0  1  0  0  0  0  0  0  0  0  0
   42.2104   31.1042  191.4916 C   0  0  0  0  0  0  0  0  0  0  0  0
   41.7053   32.5563  193.4793 C   0  0  1  0  0  0  0  0  0  0  0  0
   44.1512   30.0925  193.2708 C   0  0  0  0  0  0  0  0  0  0  0  0
   43.9650   31.4854  193.2077 C   0  0  0  0  0  0  0  0  0  0  0  0
   44.9010   32.3239  193.8354 C   0  0  0  0  0  0  0  0  0  0  0  0
   46.0009   31.7838  194.5073 C   0  0  0  0  0  0  0  0  0  0  0  0
   46.1883   30.3920  194.5692 C   0  0  0  0  0  0  0  0  0  0  0  0
   47.3573   29.8182  195.2839 C   0  0  0  0  0  0  0  0  0  0  0  0
   48.4557   30.6297  195.6268 C   0  0  0  0  0  0  0  0  0  0  0  0
   49.5550   30.0868  196.2992 C   0  0  0  0  0  0  0  0  0  0  0  0
   41.1513   30.2697  191.8406 O   0  0  0  0  0  0  0  0  0  0  0  0
   42.7298   31.0071  190.3474 O   0  0  0  0  0  0  0  0  0  0  0  0
   45.3758   28.4771  193.9591 H   0  0  0  0  0  0  0  0  0  0  0  0
   50.4224   28.3138  197.1580 H   0  0  0  0  0  0  0  0  0  0  0  0
   48.4990   26.8672  196.5690 H   0  0  0  0  0  0  0  0  0  0  0  0
   46.5497   27.8067  195.3961 H   0  0  0  0  0  0  0  0  0  0  0  0
   43.0975   32.9847  191.9185 H   0  0  0  0  0  0  0  0  0  0  0  0
   41.7311   31.9259  194.3940 H   0  0  0  0  0  0  0  0  0  0  0  0
   41.8664   33.6152  193.7733 H   0  0  0  0  0  0  0  0  0  0  0  0
   40.6969   32.4642  193.0222 H   0  0  0  0  0  0  0  0  0  0  0  0
   43.4474   29.4213  192.7958 H   0  0  0  0  0  0  0  0  0  0  0  0
   44.7799   33.3997  193.8095 H   0  0  0  0  0  0  0  0  0  0  0  0
   46.6958   32.4559  194.9950 H   0  0  0  0  0  0  0  0  0  0  0  0
   48.4725   31.6788  195.3597 H   0  0  0  0  0  0  0  0  0  0  0  0
   50.3969   30.7169  196.5554 H   0  0  0  0  0  0  0  0  0  0  0  0
   41.2322   29.2637  191.7546 H   0  0  0  0  0  0  0  0  0  0  0  0
  2  3  2  0
  3  4  1  0
  5  6  1  0
  5  7  1  0
  1  8  2  0
  5  9  1  0
  8  9  1  0
  9 10  2  0
 10 11  1  0
  1 12  1  0
 11 12  2  0
  4 13  2  0
 12 13  1  0
 13 14  1  0
  2 15  1  0
 14 15  2  0
  6 16  1  0
  6 17  2  0
  1 18  1  0
  2 19  1  0
  3 20  1  0
  4 21  1  0
  5 22  1  6
  7 23  1  1
  7 24  1  0
  7 25  1  0
  8 26  1  0
 10 27  1  0
 11 28  1  0
 14 29  1  0
 15 30  1  0
 16 31  1  0
M  END
