5SIS_JSM_A_803
     RDKit          3D

 32 35  0  0  0  0  0  0  0  0999 V2000
   37.9282  110.1615   60.7389 C   0  0  0  0  0  0  0  0  0  0  0  0
   37.6551  107.7096   61.1918 C   0  0  0  0  0  0  0  0  0  0  0  0
   37.2855  106.7901   62.0947 C   0  0  0  0  0  0  0  0  0  0  0  0
   37.9168  112.6692   61.2662 C   0  0  0  0  0  0  0  0  0  0  0  0
   34.7987  105.4747   67.6294 C   0  0  0  0  0  0  0  0  0  0  0  0
   39.3049  101.6982   63.1815 C   0  0  0  0  0  0  0  0  0  0  0  0
   37.0986  101.0461   64.1202 C   0  0  0  0  0  0  0  0  0  0  0  0
   38.1525  113.1210   59.9722 C   0  0  0  0  0  0  0  0  0  0  0  0
   37.7636  113.6101   62.2780 C   0  0  0  0  0  0  0  0  0  0  0  0
   39.9392  100.3326   63.3832 C   0  0  0  0  0  0  0  0  0  0  0  0
   37.2825  103.4025   65.9566 C   0  0  0  0  0  0  0  0  0  0  0  0
   36.6815  104.6571   66.1202 C   0  0  0  0  0  0  0  0  0  0  0  0
   37.1504  109.5048   62.7226 C   0  0  0  0  0  0  0  0  0  0  0  0
   37.1826  110.8338   62.7744 N   0  0  0  0  0  0  0  0  0  0  0  0
   36.9607  105.9537   65.5027 C   0  0  0  0  0  0  0  0  0  0  0  0
   37.5922  109.0535   61.4850 N   0  0  0  0  0  0  0  0  0  0  0  0
   38.3751  103.0690   65.0179 C   0  0  0  0  0  0  0  0  0  0  0  0
   37.6554  111.2446   61.5311 C   0  0  0  0  0  0  0  0  0  0  0  0
   36.7587  108.5555   63.6964 C   0  0  0  0  0  0  0  0  0  0  0  0
   35.7177  104.4960   67.0609 N   0  0  0  0  0  0  0  0  0  0  0  0
   35.6573  103.2084   67.5135 N   0  0  0  0  0  0  0  0  0  0  0  0
   36.5898  102.5604   66.8394 C   0  0  0  0  0  0  0  0  0  0  0  0
   36.8113  107.2204   63.3955 C   0  0  0  0  0  0  0  0  0  0  0  0
   36.4672  106.1491   64.2385 N   0  0  0  0  0  0  0  0  0  0  0  0
   38.2334  101.9601   64.1433 N   0  0  0  0  0  0  0  0  0  0  0  0
   37.6233  106.8007   66.0944 O   0  0  0  0  0  0  0  0  0  0  0  0
   39.3905  103.7597   64.9808 O   0  0  0  0  0  0  0  0  0  0  0  0
   39.2532   99.2967   62.5317 N   0  0  0  0  0  0  0  0  0  0  0  0
   38.6752   99.7594   61.2651 C   0  0  0  0  0  0  0  0  0  0  0  0
   37.9302  114.9586   62.0166 C   0  0  0  0  0  0  0  0  0  0  0  0
   38.3136  114.4733   59.7168 C   0  0  0  0  0  0  0  0  0  0  0  0
   38.1989  115.3914   60.7393 C   0  0  0  0  0  0  0  0  0  0  0  0
  2  3  2  0
  4  8  2  0
  4  9  1  0
  6 10  1  0
 11 12  2  0
 13 14  2  0
 12 15  1  0
 13 16  1  0
  1 16  1  0
  2 16  1  0
 11 17  1  0
 14 18  1  0
  1 18  2  0
  4 18  1  0
 13 19  1  0
 12 20  1  0
  5 20  1  0
 20 21  1  0
 11 22  1  0
 21 22  2  0
 19 23  2  0
  3 23  1  0
 15 24  1  0
 23 24  1  0
 17 25  1  0
  7 25  1  0
  6 25  1  0
 15 26  2  0
 17 27  2  0
 10 28  1  0
 28 29  1  0
  9 30  2  0
  8 31  1  0
 30 32  1  0
 31 32  2  0
M  END
