7VC5_9SF_A_902
     RDKit          3D

 22 24  0  0  0  0  0  0  0  0999 V2000
   -1.6764   -5.4759    6.9466 N   0  0  0  0  0  0  0  0  0  0  0  0
   -0.8623   -6.5512    7.0608 C   0  0  0  0  0  0  0  0  0  0  0  0
   -1.6056   -4.1561   10.3257 C   0  0  0  0  0  0  0  0  0  0  0  0
   -2.4333   -3.0516   10.2376 C   0  0  0  0  0  0  0  0  0  0  0  0
   -3.0124   -2.7667    9.0134 C   0  0  0  0  0  0  0  0  0  0  0  0
   -2.7621   -3.5699    7.9210 C   0  0  0  0  0  0  0  0  0  0  0  0
   -1.3605   -4.9530    9.2318 C   0  0  0  0  0  0  0  0  0  0  0  0
    0.5848   -7.9637    8.4665 C   0  0  0  0  0  0  0  0  0  0  0  0
   -0.1406  -11.7003    9.0202 C   0  0  2  0  0  0  0  0  0  0  0  0
   -0.0684   -9.2005    8.9177 C   0  0  0  0  0  0  0  0  0  0  0  0
    0.5956  -10.4284    9.3532 C   0  0  0  0  0  0  0  0  0  0  0  0
    0.4989  -12.9413    9.5545 C   0  0  2  0  0  0  0  0  0  0  0  0
   -0.5477   -6.0418    9.3100 C   0  0  0  0  0  0  0  0  0  0  0  0
   -0.2972  -14.1239    8.9832 C   0  0  0  0  0  0  0  0  0  0  0  0
    0.0578  -14.2053    7.5150 C   0  0  0  0  0  0  0  0  0  0  0  0
    0.2357  -12.8467    6.9239 C   0  0  0  0  0  0  0  0  0  0  0  0
   -1.9386   -4.6737    7.9967 C   0  0  0  0  0  0  0  0  0  0  0  0
   -0.4454  -11.7968    7.6126 N   0  0  0  0  0  0  0  0  0  0  0  0
   -0.2899   -6.8459    8.2414 N   0  0  0  0  0  0  0  0  0  0  0  0
   -0.0207   -6.2961   10.4360 O   0  0  0  0  0  0  0  0  0  0  0  0
   -1.3108   -9.1972    8.9282 O   0  0  0  0  0  0  0  0  0  0  0  0
    0.2593  -12.9904   10.9365 O   0  0  0  0  0  0  0  0  0  0  0  0
  1  2  2  0
  3  4  2  0
  4  5  1  0
  5  6  2  0
  3  7  1  0
  8 10  1  0
  9 11  1  6
 10 11  1  0
  9 12  1  0
  7 13  1  0
 12 14  1  0
 14 15  1  0
 15 16  1  0
  1 17  1  0
  7 17  2  0
  6 17  1  0
 16 18  1  0
  9 18  1  0
  8 19  1  0
  2 19  1  0
 13 19  1  0
 13 20  2  0
 10 21  2  0
 12 22  1  1
M  END
$$$$
