6M2B_EZO_A_403
     RDKit          3D

 25 27  0  0  0  0  0  0  0  0999 V2000
   40.5840  -15.1404   11.2563 C   0  0  0  0  0  0  0  0  0  0  0  0
   39.7056  -15.1214   12.3285 C   0  0  0  0  0  0  0  0  0  0  0  0
   39.2581  -16.3072   12.8317 C   0  0  0  0  0  0  0  0  0  0  0  0
   39.6780  -17.5365   12.3158 C   0  0  0  0  0  0  0  0  0  0  0  0
   40.5232  -17.5677   11.2301 C   0  0  0  0  0  0  0  0  0  0  0  0
   40.9876  -16.3598   10.7230 C   0  0  0  0  0  0  0  0  0  0  0  0
   41.0082  -18.8332   10.5836 C   0  0  0  0  0  0  0  0  0  0  0  0
   39.1661  -18.7684   12.9308 C   0  0  0  0  0  0  0  0  0  0  0  0
   37.7831  -19.8450   15.9169 C   0  0  0  0  0  0  0  0  0  0  0  0
   40.8838  -19.9498   11.1388 O   0  0  0  0  0  0  0  0  0  0  0  0
   41.5566  -18.7816    9.3943 O   0  0  0  0  0  0  0  0  0  0  0  0
   38.8301  -18.8244   14.1249 N   0  0  0  0  0  0  0  0  0  0  0  0
   38.3985  -19.9898   14.7147 N   0  0  0  0  0  0  0  0  0  0  0  0
   37.0246  -20.7960   16.4649 N   0  0  0  0  0  0  0  0  0  0  0  0
   36.4220  -20.4045   17.6297 C   0  0  0  0  0  0  0  0  0  0  0  0
   36.7311  -19.0936   17.9221 C   0  0  0  0  0  0  0  0  0  0  0  0
   37.7651  -18.3709   16.7716 S   0  0  0  0  0  0  0  0  0  0  0  0
   35.4508  -21.2577   18.3466 C   0  0  0  0  0  0  0  0  0  0  0  0
   35.6294  -22.5852   18.6094 C   0  0  0  0  0  0  0  0  0  0  0  0
   34.6573  -23.3710   19.2322 C   0  0  0  0  0  0  0  0  0  0  0  0
   33.4587  -22.7611   19.5439 C   0  0  0  0  0  0  0  0  0  0  0  0
   33.2563  -21.4088   19.2772 C   0  0  0  0  0  0  0  0  0  0  0  0
   34.2098  -20.6541   18.6442 C   0  0  0  0  0  0  0  0  0  0  0  0
   37.1749  -23.3293   18.2330 Cl  0  0  0  0  0  0  0  0  0  0  0  0
   38.2073  -21.1991   13.8795 C   0  0  0  0  0  0  0  0  0  0  0  0
  1  2  2  0
  2  3  1  0
  3  4  2  0
  4  5  1  0
  1  6  1  0
  5  6  2  0
  5  7  1  0
  4  8  1  0
  7 10  1  0
  7 11  2  0
  8 12  2  0
  9 13  1  0
 12 13  1  0
  9 14  2  0
 14 15  1  0
 15 16  2  0
 16 17  1  0
  9 17  1  0
 15 18  1  0
 18 19  2  0
 19 20  1  0
 20 21  2  0
 21 22  1  0
 22 23  2  0
 18 23  1  0
 19 24  1  0
 13 25  1  0
M  END
