7XRL_FWK_A_605
     RDKit          3D

 34 36  0  0  0  0  0  0  0  0999 V2000
    7.0861  -11.4701    2.6284 C   0  0  2  0  0  0  0  0  0  0  0  0
    8.6094  -11.2387    2.6870 C   0  0  1  0  0  0  0  0  0  0  0  0
    9.0032  -10.9444    4.0128 O   0  0  0  0  0  0  0  0  0  0  0  0
    9.4223  -12.4362    2.1636 C   0  0  1  0  0  0  0  0  0  0  0  0
   10.3519  -12.0333    1.1829 O   0  0  0  0  0  0  0  0  0  0  0  0
   10.1001  -12.9616    3.4111 C   0  0  1  0  0  0  0  0  0  0  0  0
   11.3964  -13.4382    3.1574 O   0  0  0  0  0  0  0  0  0  0  0  0
   10.1319  -11.7362    4.3119 C   0  0  2  0  0  0  0  0  0  0  0  0
   10.1420  -12.1252    5.7280 N   0  0  0  0  0  0  0  0  0  0  0  0
   11.2327  -12.2251    6.5336 C   0  0  0  0  0  0  0  0  0  0  0  0
   10.9329  -12.5724    7.8153 N   0  0  0  0  0  0  0  0  0  0  0  0
    9.5923  -12.6823    7.7869 C   0  0  0  0  0  0  0  0  0  0  0  0
    9.1187  -12.4115    6.5485 C   0  0  0  0  0  0  0  0  0  0  0  0
    7.7947  -12.4249    6.2582 N   0  0  0  0  0  0  0  0  0  0  0  0
    6.9187  -12.7373    7.2600 C   0  0  0  0  0  0  0  0  0  0  0  0
    7.3769  -13.0204    8.5215 N   0  0  0  0  0  0  0  0  0  0  0  0
    8.7114  -12.9989    8.8149 C   0  0  0  0  0  0  0  0  0  0  0  0
    9.1693  -13.2894   10.1356 N   0  0  0  0  0  0  0  0  0  0  0  0
    6.6812  -12.9436    2.7229 C   0  0  1  0  0  0  0  0  0  0  0  0
    6.6823  -11.0411    1.6856 H   0  0  0  0  0  0  0  0  0  0  0  0
    6.6121  -10.9227    3.4720 H   0  0  0  0  0  0  0  0  0  0  0  0
    8.8219  -10.3438    2.0602 H   0  0  0  0  0  0  0  0  0  0  0  0
    8.7787  -13.2257    1.7188 H   0  0  0  0  0  0  0  0  0  0  0  0
   10.8104  -12.8437    0.8363 H   0  0  0  0  0  0  0  0  0  0  0  0
    9.4730  -13.7576    3.8782 H   0  0  0  0  0  0  0  0  0  0  0  0
   11.7639  -12.8728    2.4291 H   0  0  0  0  0  0  0  0  0  0  0  0
   11.0445  -11.1329    4.1029 H   0  0  0  0  0  0  0  0  0  0  0  0
   12.2442  -12.0409    6.1960 H   0  0  0  0  0  0  0  0  0  0  0  0
    5.8570  -12.7594    7.0568 H   0  0  0  0  0  0  0  0  0  0  0  0
   10.1894  -13.3126   10.3583 H   0  0  0  0  0  0  0  0  0  0  0  0
    8.4829  -13.4837   10.8978 H   0  0  0  0  0  0  0  0  0  0  0  0
    7.5431  -13.6082    2.5095 H   0  0  0  0  0  0  0  0  0  0  0  0
    6.2793  -13.1777    3.7292 H   0  0  0  0  0  0  0  0  0  0  0  0
    5.8894  -13.1551    1.9740 H   0  0  0  0  0  0  0  0  0  0  0  0
  2  1  1  0
  2  3  1  0
  2  4  1  0
  4  5  1  0
  4  6  1  0
  6  7  1  0
  6  8  1  0
  3  8  1  0
  8  9  1  0
  9 10  1  0
 10 11  2  0
 11 12  1  0
  9 13  1  0
 12 13  2  0
 13 14  1  0
 14 15  2  0
 15 16  1  0
 12 17  1  0
 16 17  2  0
 17 18  1  0
  1 19  1  0
  1 20  1  6
  1 21  1  0
  2 22  1  6
  4 23  1  6
  5 24  1  0
  6 25  1  1
  7 26  1  0
  8 27  1  6
 10 28  1  0
 15 29  1  0
 18 30  1  0
 18 31  1  0
 19 32  1  6
 19 33  1  0
 19 34  1  0
M  END
