
     RDKit          3D

 27 29  0  0  0  0  0  0  0  0999 V2000
   35.5217    6.2416   21.3440 C   0  0  0  0  0  0  0  0  0  0  0  0
   35.3816    5.7811   22.6823 O   0  0  0  0  0  0  0  0  0  0  0  0
   34.4346    6.3957   23.4530 C   0  0  0  0  0  0  0  0  0  0  0  0
   33.0957    6.5864   23.1123 C   0  0  0  0  0  0  0  0  0  0  0  0
   32.2282    7.2311   24.0018 C   0  0  0  0  0  0  0  0  0  0  0  0
   34.8964    6.8544   24.6888 C   0  0  0  0  0  0  0  0  0  0  0  0
   34.0350    7.5016   25.5783 C   0  0  0  0  0  0  0  0  0  0  0  0
   32.6929    7.6939   25.2382 C   0  0  0  0  0  0  0  0  0  0  0  0
   31.7920    8.3511   26.1687 C   0  0  0  0  0  0  0  0  0  0  0  0
   31.4323    8.0188   27.5180 C   0  0  0  0  0  0  0  0  0  0  0  0
   31.8382    6.8562   28.3402 C   0  0  0  0  0  0  0  0  0  0  0  0
   31.8287    5.7023   27.9171 O   0  0  0  0  0  0  0  0  0  0  0  0
   32.2559    7.1598   29.6252 N   0  0  0  0  0  0  0  0  0  0  0  0
   33.1309    6.2691   30.3541 C   0  0  0  0  0  0  0  0  0  0  0  0
   32.3658    5.4858   31.4031 C   0  0  0  0  0  0  0  0  0  0  0  0
   30.6082    8.9574   28.0220 N   0  0  0  0  0  0  0  0  0  0  0  0
   30.4372    9.8369   27.0313 N   0  0  0  0  0  0  0  0  0  0  0  0
   31.1274    9.5363   25.8889 C   0  0  0  0  0  0  0  0  0  0  0  0
   31.0928   10.4024   24.7147 C   0  0  0  0  0  0  0  0  0  0  0  0
   32.2835   10.9992   24.2771 C   0  0  0  0  0  0  0  0  0  0  0  0
   32.2845   11.8391   23.1599 C   0  0  0  0  0  0  0  0  0  0  0  0
   33.7769   12.5547   22.6715 Cl  0  0  0  0  0  0  0  0  0  0  0  0
   31.0962   12.0847   22.4668 C   0  0  0  0  0  0  0  0  0  0  0  0
   31.0985   12.9055   21.3731 O   0  0  0  0  0  0  0  0  0  0  0  0
   29.9069   11.4941   22.8874 C   0  0  0  0  0  0  0  0  0  0  0  0
   29.9097   10.6607   24.0059 C   0  0  0  0  0  0  0  0  0  0  0  0
   28.7025   10.1131   24.3442 O   0  0  0  0  0  0  0  0  0  0  0  0
  1  2  1  0
  2  3  1  0
  3  4  4  0
  4  5  4  0
  3  6  4  0
  6  7  4  0
  5  8  4  0
  7  8  4  0
  8  9  1  0
  9 10  4  0
 10 11  1  0
 11 12  2  0
 11 13  1  0
 13 14  1  0
 14 15  1  0
 10 16  4  0
 16 17  4  0
  9 18  4  0
 17 18  4  0
 18 19  1  0
 19 20  4  0
 20 21  4  0
 21 22  1  0
 21 23  4  0
 23 24  1  0
 23 25  4  0
 19 26  4  0
 25 26  4  0
 26 27  1  0
M  END
