7OZC_G6S_AAA_601
     RDKit          3D

 28 28  0  0  0  0  0  0  0  0999 V2000
    9.8774   -4.0374   24.0974 C   0  0  2  0  0  0  0  0  0  0  0  0
   11.2832   -4.6732   24.0184 C   0  0  1  0  0  0  0  0  0  0  0  0
   11.7728   -4.7856   22.5494 C   0  0  2  0  0  0  0  0  0  0  0  0
   11.1153   -3.7235   21.6351 C   0  0  2  0  0  0  0  0  0  0  0  0
   10.7295   -2.4813   22.4736 C   0  0  1  0  0  0  0  0  0  0  0  0
   10.2226   -1.3356   21.5869 C   0  0  1  0  0  0  0  0  0  0  0  0
    8.9325   -4.9206   23.5534 O   0  0  0  0  0  0  0  0  0  0  0  0
   12.1775   -3.8935   24.7721 O   0  0  0  0  0  0  0  0  0  0  0  0
    9.9692   -4.2438   21.0055 O   0  0  0  0  0  0  0  0  0  0  0  0
    9.7542   -2.7594   23.4723 O   0  0  0  0  0  0  0  0  0  0  0  0
   10.9610   -0.1641   21.8414 O   0  0  0  0  0  0  0  0  0  0  0  0
   12.5447   -0.6050   22.2488 S   0  0  1  0  0  6  0  0  0  0  0  0
   13.3403   -0.8788   21.0020 O   0  0  0  0  0  0  0  0  0  0  0  0
   13.1870    0.5333   22.9891 O   0  0  0  0  0  0  0  0  0  0  0  0
   12.5472   -1.9622   23.2451 O   0  0  0  0  0  0  0  0  0  0  0  0
   11.5181   -6.0749   22.0492 O   0  0  0  0  0  0  0  0  0  0  0  0
    9.6432   -3.9044   25.1782 H   0  0  0  0  0  0  0  0  0  0  0  0
   11.2235   -5.6899   24.4754 H   0  0  0  0  0  0  0  0  0  0  0  0
   12.8746   -4.6066   22.5266 H   0  0  0  0  0  0  0  0  0  0  0  0
   11.8603   -3.4119   20.8636 H   0  0  0  0  0  0  0  0  0  0  0  0
   11.6481   -2.1000   22.9741 H   0  0  0  0  0  0  0  0  0  0  0  0
   10.3535   -1.6408   20.5249 H   0  0  0  0  0  0  0  0  0  0  0  0
    9.1369   -1.1814   21.7838 H   0  0  0  0  0  0  0  0  0  0  0  0
    8.6766   -4.5505   22.6685 H   0  0  0  0  0  0  0  0  0  0  0  0
   13.0642   -3.9648   24.3308 H   0  0  0  0  0  0  0  0  0  0  0  0
    9.3630   -3.4786   20.8250 H   0  0  0  0  0  0  0  0  0  0  0  0
   12.0381   -1.6956   24.0520 H   0  0  0  0  0  0  0  0  0  0  0  0
   11.8702   -6.7190   22.7182 H   0  0  0  0  0  0  0  0  0  0  0  0
  1  2  1  0
  2  3  1  0
  3  4  1  0
  4  5  1  0
  5  6  1  0
  1  7  1  0
  2  8  1  0
  4  9  1  0
  1 10  1  0
  5 10  1  0
  6 11  1  0
 12 11  1  6
 12 13  2  0
 12 14  2  0
 12 15  1  0
  3 16  1  0
  1 17  1  1
  2 18  1  1
  3 19  1  1
  4 20  1  6
  5 21  1  1
  6 22  1  6
  6 23  1  0
  7 24  1  0
  8 25  1  0
  9 26  1  0
 15 27  1  0
 16 28  1  0
M  END
