7CL8_TES_A_505
     RDKit          3D

 21 24  0  0  0  0  0  0  0  0999 V2000
   10.7744   -4.1727  -22.2951 C   0  0  0  0  0  0  0  0  0  0  0  0
   11.5971   -5.3782  -21.8293 C   0  0  0  0  0  0  0  0  0  0  0  0
   11.9846   -5.3036  -20.4078 C   0  0  0  0  0  0  0  0  0  0  0  0
   12.9512   -5.9359  -20.0087 O   0  0  0  0  0  0  0  0  0  0  0  0
   11.2088   -4.4172  -19.5759 C   0  0  0  0  0  0  0  0  0  0  0  0
   10.0805   -3.8001  -19.9354 C   0  0  0  0  0  0  0  0  0  0  0  0
    9.2198   -3.1239  -18.8991 C   0  0  0  0  0  0  0  0  0  0  0  0
    8.7949   -1.7250  -19.3336 C   0  0  0  0  0  0  0  0  0  0  0  0
    8.1039   -1.8055  -20.6863 C   0  0  2  0  0  0  0  0  0  0  0  0
    9.0372   -2.3877  -21.7619 C   0  0  1  0  0  0  0  0  0  0  0  0
    9.5929   -3.8005  -21.3823 C   0  0  1  0  0  0  0  0  0  0  0  0
    8.3808   -2.3444  -23.1488 C   0  0  0  0  0  0  0  0  0  0  0  0
    7.8335   -0.9655  -23.5075 C   0  0  0  0  0  0  0  0  0  0  0  0
    6.8818   -0.4242  -22.4734 C   0  0  1  0  0  0  0  0  0  0  0  0
    7.6580   -0.4238  -21.1430 C   0  0  1  0  0  0  0  0  0  0  0  0
    6.7877    0.4468  -20.2322 C   0  0  0  0  0  0  0  0  0  0  0  0
    6.1931    1.5201  -21.1700 C   0  0  0  0  0  0  0  0  0  0  0  0
    6.5865    1.1023  -22.6031 C   0  0  2  0  0  0  0  0  0  0  0  0
    5.5516    1.4812  -23.5354 O   0  0  0  0  0  0  0  0  0  0  0  0
    5.5571   -1.1802  -22.5037 C   0  0  0  0  0  0  0  0  0  0  0  0
    8.5138   -4.8814  -21.4681 C   0  0  0  0  0  0  0  0  0  0  0  0
  1  2  1  0
  2  3  1  0
  3  4  2  0
  3  5  1  0
  5  6  2  0
  6  7  1  0
  7  8  1  0
  9  8  1  1
  9 10  1  0
  1 11  1  0
  6 11  1  0
 10 11  1  0
 10 12  1  6
 12 13  1  0
 13 14  1  0
  9 15  1  0
 14 15  1  0
 15 16  1  1
 16 17  1  0
 14 18  1  0
 17 18  1  0
 18 19  1  6
 14 20  1  1
 11 21  1  1
M  END
