@<TRIPOS>MOLECULE
1KE5_LS1_A_299
 38 40 0 0 0
SMALL
GASTEIGER

@<TRIPOS>ATOM
      1 N          -9.5330   52.7730   40.6960 N.am    1  UNL1       -0.2809
      2 C          -9.9690   51.9100   39.7440 C.2     1  UNL1        0.2501
      3 C          -9.3390   50.5690   39.9840 C.2     1  UNL1        0.0596
      4 C          -7.5730   49.8180   41.8530 C.ar    1  UNL1       -0.0521
      5 C          -6.8050   50.3380   43.0180 C.ar    1  UNL1       -0.0611
      6 C          -6.9720   51.7510   43.4380 C.ar    1  UNL1       -0.0600
      7 C          -7.8640   52.6690   42.6680 C.ar    1  UNL1       -0.0399
      8 C          -8.6350   52.1420   41.5260 C.ar    1  UNL1        0.0416
      9 C          -8.4880   50.7530   41.1260 C.ar    1  UNL1        0.0095
     10 O         -10.7110   52.1550   38.7830 O.2     1  UNL1       -0.2698
     11 C          -9.4920   49.4720   39.2340 C.2     1  UNL1        0.0065
     12 N         -10.2290   49.4510   37.9610 N.pl3   1  UNL1       -0.3198
     13 C         -10.2480   48.4250   37.0840 C.ar    1  UNL1        0.0310
     14 C          -9.1600   47.3970   36.9390 C.ar    1  UNL1       -0.0387
     15 C          -9.2920   46.3320   35.9690 C.ar    1  UNL1       -0.0336
     16 C         -10.4960   46.2570   35.1340 C.ar    1  UNL1        0.1053
     17 C         -11.5720   47.2770   35.2400 C.ar    1  UNL1       -0.0336
     18 C         -11.4480   48.3620   36.2220 C.ar    1  UNL1       -0.0387
     19 S         -10.4970   45.1020   33.8130 S.O2    1  UNL1        0.0582
     20 O          -9.4930   45.5150   32.8900 O.2     1  UNL1       -0.1531
     21 O         -11.8370   44.9790   33.3220 O.2     1  UNL1       -0.1531
     22 N         -10.1440   43.5980   34.3930 N.3     1  UNL1       -0.1930
     23 C          -8.9430   43.1360   35.0740 C.3     1  UNL1        0.0059
     24 H          -9.8171   53.7118   40.7804 H       1  UNL1        0.1552
     25 H          -7.4765   48.8351   41.5537 H       1  UNL1        0.0624
     26 H          -6.1591   49.7179   43.5312 H       1  UNL1        0.0618
     27 H          -6.4686   52.1020   44.2677 H       1  UNL1        0.0618
     28 H          -7.9403   53.6636   42.9327 H       1  UNL1        0.0636
     29 H          -9.0695   48.5913   39.5670 H       1  UNL1        0.0789
     30 H         -10.7521   50.2522   37.7293 H       1  UNL1        0.1516
     31 H          -8.3176   47.4514   37.5326 H       1  UNL1        0.0637
     32 H          -8.5436   45.6291   35.8649 H       1  UNL1        0.0638
     33 H         -12.4008   47.2231   34.6275 H       1  UNL1        0.0638
     34 H         -12.1907   49.0732   36.3096 H       1  UNL1        0.0637
     35 H         -10.2247   42.9876   33.5798 H       1  UNL1        0.1477
     36 H          -8.7797   43.7281   35.9501 H       1  UNL1        0.0405
     37 H          -8.1027   43.2299   34.4183 H       1  UNL1        0.0405
     38 H          -9.0640   42.1104   35.3541 H       1  UNL1        0.0405
@<TRIPOS>BOND
     1     1     2   am
     2     2     3    1
     3     4     5   ar
     4     5     6   ar
     5     6     7   ar
     6     1     8    1
     7     7     8   ar
     8     3     9    1
     9     4     9   ar
    10     8     9   ar
    11     2    10    2
    12     3    11    2
    13    11    12    1
    14    12    13    1
    15    13    14   ar
    16    14    15   ar
    17    15    16   ar
    18    16    17   ar
    19    13    18   ar
    20    17    18   ar
    21    16    19    1
    22    19    20    2
    23    19    21    2
    24    19    22    1
    25    22    23    1
    26     1    24    1
    27     4    25    1
    28     5    26    1
    29     6    27    1
    30     7    28    1
    31    11    29    1
    32    12    30    1
    33    14    31    1
    34    15    32    1
    35    17    33    1
    36    18    34    1
    37    22    35    1
    38    23    36    1
    39    23    37    1
    40    23    38    1
