1KE5_LS1_A_299
     RDKit          3D

 38 40  0  0  0  0  0  0  0  0999 V2000
    3.8061    2.2171    1.0236 N   0  0  0  0  0  0  0  0  0  0  0  0
    2.6157    1.8717    0.3208 C   0  0  0  0  0  0  0  0  0  0  0  0
    2.3626    0.4226    0.4003 C   0  0  0  0  0  0  0  0  0  0  0  0
    3.7695   -1.3766    1.6438 C   0  0  0  0  0  0  0  0  0  0  0  0
    4.9177   -1.5725    2.4302 C   0  0  0  0  0  0  0  0  0  0  0  0
    5.7428   -0.4823    2.7738 C   0  0  0  0  0  0  0  0  0  0  0  0
    5.4278    0.8141    2.3339 C   0  0  0  0  0  0  0  0  0  0  0  0
    4.2853    0.9877    1.5540 C   0  0  0  0  0  0  0  0  0  0  0  0
    3.4725   -0.0794    1.2168 C   0  0  0  0  0  0  0  0  0  0  0  0
    1.8821    2.7247   -0.2440 O   0  0  0  0  0  0  0  0  0  0  0  0
    1.3540   -0.3017   -0.1058 C   0  0  0  0  0  0  0  0  0  0  0  0
    0.3340    0.2679   -0.9410 N   0  0  0  0  0  0  0  0  0  0  0  0
   -0.8985   -0.4123   -1.2374 C   0  0  0  0  0  0  0  0  0  0  0  0
   -1.6159   -0.0660   -2.3935 C   0  0  0  0  0  0  0  0  0  0  0  0
   -2.8219   -0.7033   -2.6982 C   0  0  0  0  0  0  0  0  0  0  0  0
   -3.3323   -1.6913   -1.8479 C   0  0  0  0  0  0  0  0  0  0  0  0
   -2.6343   -2.0263   -0.6804 C   0  0  0  0  0  0  0  0  0  0  0  0
   -1.4272   -1.3907   -0.3739 C   0  0  0  0  0  0  0  0  0  0  0  0
   -4.8643   -2.4737   -2.2327 S   0  0  0  0  0  6  0  0  0  0  0  0
   -5.0037   -3.7501   -1.4499 O   0  0  0  0  0  0  0  0  0  0  0  0
   -4.8871   -2.8107   -3.6970 O   0  0  0  0  0  0  0  0  0  0  0  0
   -6.1935   -1.4151   -1.8702 N   0  0  0  0  0  0  0  0  0  0  0  0
   -6.2110   -1.1160   -0.4401 C   0  0  0  0  0  0  0  0  0  0  0  0
    4.2183    3.1685    1.1473 H   0  0  0  0  0  0  0  0  0  0  0  0
    3.1380   -2.2143    1.3805 H   0  0  0  0  0  0  0  0  0  0  0  0
    5.1703   -2.5671    2.7738 H   0  0  0  0  0  0  0  0  0  0  0  0
    6.6247   -0.6451    3.3796 H   0  0  0  0  0  0  0  0  0  0  0  0
    6.0564    1.6557    2.5940 H   0  0  0  0  0  0  0  0  0  0  0  0
    1.3246   -1.3624    0.1051 H   0  0  0  0  0  0  0  0  0  0  0  0
    0.5404    1.1446   -1.4678 H   0  0  0  0  0  0  0  0  0  0  0  0
   -1.2358    0.6950   -3.0636 H   0  0  0  0  0  0  0  0  0  0  0  0
   -3.3596   -0.4236   -3.5954 H   0  0  0  0  0  0  0  0  0  0  0  0
   -3.0280   -2.7704    0.0000 H   0  0  0  0  0  0  0  0  0  0  0  0
   -0.9244   -1.6510    0.5476 H   0  0  0  0  0  0  0  0  0  0  0  0
   -6.0217   -0.5190   -2.3814 H   0  0  0  0  0  0  0  0  0  0  0  0
   -7.0696   -0.4487   -0.2169 H   0  0  0  0  0  0  0  0  0  0  0  0
   -5.2769   -0.5994   -0.1292 H   0  0  0  0  0  0  0  0  0  0  0  0
   -6.3396   -2.0491    0.1486 H   0  0  0  0  0  0  0  0  0  0  0  0
  1  2  1  0
  2  3  1  0
  4  5  1  0
  5  6  2  0
  6  7  1  0
  1  8  1  0
  7  8  2  0
  3  9  1  0
  4  9  2  0
  8  9  1  0
  2 10  2  0
  3 11  2  0
 11 12  1  0
 12 13  1  0
 13 14  2  0
 14 15  1  0
 15 16  2  0
 16 17  1  0
 13 18  1  0
 17 18  2  0
 16 19  1  0
 19 20  2  0
 19 21  2  0
 19 22  1  0
 22 23  1  0
  1 24  1  0
  4 25  1  0
  5 26  1  0
  6 27  1  0
  7 28  1  0
 11 29  1  0
 12 30  1  0
 14 31  1  0
 15 32  1  0
 17 33  1  0
 18 34  1  0
 22 35  1  0
 23 36  1  0
 23 37  1  0
 23 38  1  0
M  END
