@<TRIPOS>MOLECULE
1KE5_LS1_A_299
 38 40 0 0 0
SMALL
GASTEIGER

@<TRIPOS>ATOM
      1 N           3.8061    2.2171    1.0236 N.am    1  UNL1       -0.2809
      2 C           2.6157    1.8717    0.3208 C.2     1  UNL1        0.2501
      3 C           2.3626    0.4226    0.4003 C.2     1  UNL1        0.0596
      4 C           3.7695   -1.3766    1.6438 C.ar    1  UNL1       -0.0521
      5 C           4.9177   -1.5725    2.4302 C.ar    1  UNL1       -0.0611
      6 C           5.7428   -0.4823    2.7738 C.ar    1  UNL1       -0.0600
      7 C           5.4278    0.8141    2.3339 C.ar    1  UNL1       -0.0399
      8 C           4.2853    0.9877    1.5540 C.ar    1  UNL1        0.0416
      9 C           3.4725   -0.0794    1.2168 C.ar    1  UNL1        0.0095
     10 O           1.8821    2.7247   -0.2440 O.2     1  UNL1       -0.2698
     11 C           1.3540   -0.3017   -0.1058 C.2     1  UNL1        0.0065
     12 N           0.3340    0.2679   -0.9410 N.pl3   1  UNL1       -0.3198
     13 C          -0.8985   -0.4123   -1.2374 C.ar    1  UNL1        0.0310
     14 C          -1.6159   -0.0660   -2.3935 C.ar    1  UNL1       -0.0387
     15 C          -2.8219   -0.7033   -2.6982 C.ar    1  UNL1       -0.0336
     16 C          -3.3323   -1.6913   -1.8479 C.ar    1  UNL1        0.1053
     17 C          -2.6343   -2.0263   -0.6804 C.ar    1  UNL1       -0.0336
     18 C          -1.4272   -1.3907   -0.3739 C.ar    1  UNL1       -0.0387
     19 S          -4.8643   -2.4737   -2.2327 S.O2    1  UNL1        0.0582
     20 O          -5.0037   -3.7501   -1.4499 O.2     1  UNL1       -0.1531
     21 O          -4.8871   -2.8107   -3.6970 O.2     1  UNL1       -0.1531
     22 N          -6.1935   -1.4151   -1.8702 N.3     1  UNL1       -0.1930
     23 C          -6.2110   -1.1160   -0.4401 C.3     1  UNL1        0.0059
     24 H           4.2183    3.1685    1.1473 H       1  UNL1        0.1552
     25 H           3.1380   -2.2143    1.3805 H       1  UNL1        0.0624
     26 H           5.1703   -2.5671    2.7738 H       1  UNL1        0.0618
     27 H           6.6247   -0.6451    3.3796 H       1  UNL1        0.0618
     28 H           6.0564    1.6557    2.5940 H       1  UNL1        0.0636
     29 H           1.3246   -1.3624    0.1051 H       1  UNL1        0.0789
     30 H           0.5404    1.1446   -1.4678 H       1  UNL1        0.1516
     31 H          -1.2358    0.6950   -3.0636 H       1  UNL1        0.0637
     32 H          -3.3596   -0.4236   -3.5954 H       1  UNL1        0.0638
     33 H          -3.0280   -2.7704    0.0000 H       1  UNL1        0.0638
     34 H          -0.9244   -1.6510    0.5476 H       1  UNL1        0.0637
     35 H          -6.0217   -0.5190   -2.3814 H       1  UNL1        0.1477
     36 H          -7.0696   -0.4487   -0.2169 H       1  UNL1        0.0405
     37 H          -5.2769   -0.5994   -0.1292 H       1  UNL1        0.0405
     38 H          -6.3396   -2.0491    0.1486 H       1  UNL1        0.0405
@<TRIPOS>BOND
     1     1     2   am
     2     2     3    1
     3     4     5   ar
     4     5     6   ar
     5     6     7   ar
     6     1     8    1
     7     7     8   ar
     8     3     9    1
     9     4     9   ar
    10     8     9   ar
    11     2    10    2
    12     3    11    2
    13    11    12    1
    14    12    13    1
    15    13    14   ar
    16    14    15   ar
    17    15    16   ar
    18    16    17   ar
    19    13    18   ar
    20    17    18   ar
    21    16    19    1
    22    19    20    2
    23    19    21    2
    24    19    22    1
    25    22    23    1
    26     1    24    1
    27     4    25    1
    28     5    26    1
    29     6    27    1
    30     7    28    1
    31    11    29    1
    32    12    30    1
    33    14    31    1
    34    15    32    1
    35    17    33    1
    36    18    34    1
    37    22    35    1
    38    23    36    1
    39    23    37    1
    40    23    38    1
