1S3V_TQD_A_187
     RDKit          3D

 27 29  0  0  0  0  0  0  0  0999 V2000
   -0.5807   31.8737   -0.2103 C   0  0  2  0  0  0  0  0  0  0  0  0
   -1.0199   32.4181    2.0914 C   0  0  0  0  0  0  0  0  0  0  0  0
   -1.2303   31.0187    2.4448 C   0  0  0  0  0  0  0  0  0  0  0  0
   -1.5742   30.6748    3.8760 C   0  0  0  0  0  0  0  0  0  0  0  0
   -2.3841   29.4300    3.7781 C   0  0  1  0  0  0  0  0  0  0  0  0
   -1.4854   28.3501    3.2066 C   0  0  0  0  0  0  0  0  0  0  0  0
   -1.3059   28.6440    1.7351 C   0  0  0  0  0  0  0  0  0  0  0  0
   -1.1178   30.0969    1.5097 C   0  0  0  0  0  0  0  0  0  0  0  0
   -3.1363   29.0089    4.9862 C   0  0  0  0  0  0  0  0  0  0  0  0
   -3.7934   26.5672    5.0844 C   0  0  0  0  0  0  0  0  0  0  0  0
   -5.1007   26.7659    4.6618 C   0  0  0  0  0  0  0  0  0  0  0  0
   -5.9390   25.7230    4.3168 C   0  0  0  0  0  0  0  0  0  0  0  0
   -7.8521   27.1444    3.6342 C   0  0  0  0  0  0  0  0  0  0  0  0
   -5.4609   24.4314    4.3938 C   0  0  0  0  0  0  0  0  0  0  0  0
   -6.5010   22.9140    2.7484 C   0  0  0  0  0  0  0  0  0  0  0  0
   -4.1707   24.1870    4.8073 C   0  0  0  0  0  0  0  0  0  0  0  0
   -2.3920   22.5468    5.2351 C   0  0  0  0  0  0  0  0  0  0  0  0
   -3.3589   25.2682    5.1462 C   0  0  0  0  0  0  0  0  0  0  0  0
   -0.7876   30.5062    0.1874 N   0  0  0  0  0  0  0  0  0  0  0  0
    0.7654   32.0043   -0.7123 N   0  0  0  0  0  0  0  0  0  0  0  0
   -0.7272   32.7990    0.8956 N   0  0  0  0  0  0  0  0  0  0  0  0
   -1.1290   33.4538    3.0794 N   0  0  0  0  0  0  0  0  0  0  0  0
   -2.9514   27.6819    5.4495 N   0  0  0  0  0  0  0  0  0  0  0  0
   -7.2459   25.9138    3.8935 O   0  0  0  0  0  0  0  0  0  0  0  0
   -6.2466   23.3407    4.0635 O   0  0  0  0  0  0  0  0  0  0  0  0
   -3.7117   22.8737    4.8763 O   0  0  0  0  0  0  0  0  0  0  0  0
   -1.8417   27.3855    6.3390 C   0  0  0  0  0  0  0  0  0  0  0  0
  2  3  1  0
  3  4  1  0
  4  5  1  0
  5  6  1  0
  6  7  1  0
  3  8  2  0
  7  8  1  0
  5  9  1  1
 10 11  2  0
 11 12  1  0
 12 14  2  0
 14 16  1  0
 10 18  1  0
 16 18  2  0
  1 19  1  0
  8 19  1  0
  1 20  1  1
  1 21  1  0
  2 21  2  0
  2 22  1  0
  9 23  1  0
 10 23  1  0
 12 24  1  0
 13 24  1  0
 14 25  1  0
 15 25  1  0
 16 26  1  0
 17 26  1  0
 23 27  1  0
M  END
$$$$
