1S3V_TQD_A_187
     RDKit          3D

 27 29  0  0  0  0  0  0  0  0999 V2000
   -0.6451   31.1925   -0.3074 C   0  0  2  0  0  0  0  0  0  0  0  0
   -1.1587   32.4339    1.6883 C   0  0  0  0  0  0  0  0  0  0  0  0
   -1.6287   31.2400    2.3820 C   0  0  0  0  0  0  0  0  0  0  0  0
   -2.1330   31.3757    3.8006 C   0  0  0  0  0  0  0  0  0  0  0  0
   -3.1319   30.2824    3.9493 C   0  0  1  0  0  0  0  0  0  0  0  0
   -2.3879   28.9683    3.8066 C   0  0  0  0  0  0  0  0  0  0  0  0
   -2.0506   28.7969    2.3435 C   0  0  0  0  0  0  0  0  0  0  0  0
   -1.6032   30.0814    1.7545 C   0  0  0  0  0  0  0  0  0  0  0  0
   -4.0336   30.3379    5.1267 C   0  0  0  0  0  0  0  0  0  0  0  0
   -3.9478   27.8350    5.4891 C   0  0  0  0  0  0  0  0  0  0  0  0
   -2.7437   27.1608    5.6393 C   0  0  0  0  0  0  0  0  0  0  0  0
   -2.5529   25.8674    5.1919 C   0  0  0  0  0  0  0  0  0  0  0  0
   -0.1570   25.7287    5.8139 C   0  0  0  0  0  0  0  0  0  0  0  0
   -3.5989   25.2168    4.5711 C   0  0  0  0  0  0  0  0  0  0  0  0
   -2.7034   23.5518    2.9845 C   0  0  0  0  0  0  0  0  0  0  0  0
   -4.8113   25.8464    4.4008 C   0  0  0  0  0  0  0  0  0  0  0  0
   -7.1171   25.7434    3.5581 C   0  0  0  0  0  0  0  0  0  0  0  0
   -4.9607   27.1515    4.8669 C   0  0  0  0  0  0  0  0  0  0  0  0
   -1.1096   30.0412    0.4205 N   0  0  0  0  0  0  0  0  0  0  0  0
    0.7378   30.9821   -0.6601 N   0  0  0  0  0  0  0  0  0  0  0  0
   -0.7163   32.4085    0.4782 N   0  0  0  0  0  0  0  0  0  0  0  0
   -1.1657   33.7152    2.3355 N   0  0  0  0  0  0  0  0  0  0  0  0
   -4.1051   29.1915    5.9578 N   0  0  0  0  0  0  0  0  0  0  0  0
   -1.3530   25.1875    5.3387 O   0  0  0  0  0  0  0  0  0  0  0  0
   -3.4764   23.9214    4.0990 O   0  0  0  0  0  0  0  0  0  0  0  0
   -5.8520   25.1678    3.7709 O   0  0  0  0  0  0  0  0  0  0  0  0
   -4.3346   29.3573    7.3828 C   0  0  0  0  0  0  0  0  0  0  0  0
  2  3  1  0
  3  4  1  0
  4  5  1  0
  5  6  1  0
  6  7  1  0
  3  8  2  0
  7  8  1  0
  5  9  1  1
 10 11  2  0
 11 12  1  0
 12 14  2  0
 14 16  1  0
 10 18  1  0
 16 18  2  0
  1 19  1  0
  8 19  1  0
  1 20  1  1
  1 21  1  0
  2 21  2  0
  2 22  1  0
  9 23  1  0
 10 23  1  0
 12 24  1  0
 13 24  1  0
 14 25  1  0
 15 25  1  0
 16 26  1  0
 17 26  1  0
 23 27  1  0
M  END
$$$$
