1S3V_TQD_A_187
     RDKit          3D

 27 29  0  0  0  0  0  0  0  0999 V2000
    0.7741   31.7429    0.7509 C   0  0  2  0  0  0  0  0  0  0  0  0
   -1.0013   30.1838    0.2983 C   0  0  0  0  0  0  0  0  0  0  0  0
   -1.8056   30.6857    1.4068 C   0  0  0  0  0  0  0  0  0  0  0  0
   -3.1531   30.0536    1.6707 C   0  0  0  0  0  0  0  0  0  0  0  0
   -3.3659   30.2222    3.1341 C   0  0  1  0  0  0  0  0  0  0  0  0
   -3.4495   31.7113    3.4098 C   0  0  0  0  0  0  0  0  0  0  0  0
   -2.0499   32.2705    3.2981 C   0  0  0  0  0  0  0  0  0  0  0  0
   -1.3359   31.6704    2.1461 C   0  0  0  0  0  0  0  0  0  0  0  0
   -4.4556   29.4328    3.7603 C   0  0  0  0  0  0  0  0  0  0  0  0
   -3.9363   27.3048    5.0271 C   0  0  0  0  0  0  0  0  0  0  0  0
   -2.7062   26.7908    5.4140 C   0  0  0  0  0  0  0  0  0  0  0  0
   -2.4535   25.4340    5.4823 C   0  0  0  0  0  0  0  0  0  0  0  0
   -0.0993   25.6530    6.2281 C   0  0  0  0  0  0  0  0  0  0  0  0
   -3.4619   24.5519    5.1540 C   0  0  0  0  0  0  0  0  0  0  0  0
   -2.6198   22.4339    4.2073 C   0  0  0  0  0  0  0  0  0  0  0  0
   -4.6981   25.0167    4.7651 C   0  0  0  0  0  0  0  0  0  0  0  0
   -6.9725   24.5017    3.9909 C   0  0  0  0  0  0  0  0  0  0  0  0
   -4.9101   26.3932    4.7097 C   0  0  0  0  0  0  0  0  0  0  0  0
   -0.0589   32.2110    1.8270 N   0  0  0  0  0  0  0  0  0  0  0  0
    0.9923   32.8352   -0.1658 N   0  0  0  0  0  0  0  0  0  0  0  0
    0.1590   30.6625    0.0058 N   0  0  0  0  0  0  0  0  0  0  0  0
   -1.4761   29.1152   -0.5344 N   0  0  0  0  0  0  0  0  0  0  0  0
   -4.1585   28.7296    4.9549 N   0  0  0  0  0  0  0  0  0  0  0  0
   -1.2274   24.9133    5.8682 O   0  0  0  0  0  0  0  0  0  0  0  0
   -3.2771   23.1809    5.2003 O   0  0  0  0  0  0  0  0  0  0  0  0
   -5.6999   24.1054    4.4388 O   0  0  0  0  0  0  0  0  0  0  0  0
   -4.0470   29.4622    6.2044 C   0  0  0  0  0  0  0  0  0  0  0  0
  2  3  1  0
  3  4  1  0
  4  5  1  0
  5  6  1  0
  6  7  1  0
  3  8  2  0
  7  8  1  0
  5  9  1  6
 10 11  2  0
 11 12  1  0
 12 14  2  0
 14 16  1  0
 10 18  1  0
 16 18  2  0
  1 19  1  0
  8 19  1  0
  1 20  1  6
  1 21  1  0
  2 21  2  0
  2 22  1  0
  9 23  1  0
 10 23  1  0
 12 24  1  0
 13 24  1  0
 14 25  1  0
 15 25  1  0
 16 26  1  0
 17 26  1  0
 23 27  1  0
M  END
$$$$
