1S3V_TQD_A_187
     RDKit          3D

 27 29  0  0  0  0  0  0  0  0999 V2000
    0.0875   32.4092    1.4346 C   0  0  2  0  0  0  0  0  0  0  0  0
   -0.4405   30.1414    0.8298 C   0  0  0  0  0  0  0  0  0  0  0  0
   -1.3155   29.9737    1.9847 C   0  0  0  0  0  0  0  0  0  0  0  0
   -2.0059   28.6441    2.1857 C   0  0  0  0  0  0  0  0  0  0  0  0
   -2.1864   28.5346    3.6590 C   0  0  1  0  0  0  0  0  0  0  0  0
   -3.1199   29.6519    4.0840 C   0  0  0  0  0  0  0  0  0  0  0  0
   -2.3352   30.9422    4.0269 C   0  0  0  0  0  0  0  0  0  0  0  0
   -1.4771   30.9811    2.8189 C   0  0  0  0  0  0  0  0  0  0  0  0
   -2.5542   27.2040    4.2041 C   0  0  0  0  0  0  0  0  0  0  0  0
   -4.6369   25.7885    4.4522 C   0  0  0  0  0  0  0  0  0  0  0  0
   -5.9371   25.8058    3.9662 C   0  0  0  0  0  0  0  0  0  0  0  0
   -6.6839   24.6559    3.7944 C   0  0  0  0  0  0  0  0  0  0  0  0
   -8.7704   25.7986    3.0965 C   0  0  0  0  0  0  0  0  0  0  0  0
   -6.1177   23.4402    4.1174 C   0  0  0  0  0  0  0  0  0  0  0  0
   -7.9003   21.8616    4.7667 C   0  0  0  0  0  0  0  0  0  0  0  0
   -4.8309   23.3752    4.6024 C   0  0  0  0  0  0  0  0  0  0  0  0
   -2.9815   21.9885    5.4357 C   0  0  0  0  0  0  0  0  0  0  0  0
   -4.1131   24.5595    4.7605 C   0  0  0  0  0  0  0  0  0  0  0  0
   -0.7925   32.2000    2.5539 N   0  0  0  0  0  0  0  0  0  0  0  0
   -0.4419   33.4852    0.6327 N   0  0  0  0  0  0  0  0  0  0  0  0
    0.1888   31.2391    0.5852 N   0  0  0  0  0  0  0  0  0  0  0  0
   -0.2390   29.0715   -0.1058 N   0  0  0  0  0  0  0  0  0  0  0  0
   -3.8925   27.0127    4.6308 N   0  0  0  0  0  0  0  0  0  0  0  0
   -7.9831   24.6654    3.3091 O   0  0  0  0  0  0  0  0  0  0  0  0
   -6.8091   22.2502    3.9702 O   0  0  0  0  0  0  0  0  0  0  0  0
   -4.2819   22.1353    4.9211 O   0  0  0  0  0  0  0  0  0  0  0  0
   -4.5854   28.0936    5.3106 C   0  0  0  0  0  0  0  0  0  0  0  0
  2  3  1  0
  3  4  1  0
  4  5  1  0
  5  6  1  0
  6  7  1  0
  3  8  2  0
  7  8  1  0
  5  9  1  6
 10 11  2  0
 11 12  1  0
 12 14  2  0
 14 16  1  0
 10 18  1  0
 16 18  2  0
  1 19  1  0
  8 19  1  0
  1 20  1  6
  1 21  1  0
  2 21  2  0
  2 22  1  0
  9 23  1  0
 10 23  1  0
 12 24  1  0
 13 24  1  0
 14 25  1  0
 15 25  1  0
 16 26  1  0
 17 26  1  0
 23 27  1  0
M  END
$$$$
