1S3V_TQD_A_187
     RDKit          3D

 27 29  0  0  0  0  0  0  0  0999 V2000
   -0.3098   32.0250   -0.0307 C   0  0  2  0  0  0  0  0  0  0  0  0
   -1.1437   32.5196    2.1710 C   0  0  0  0  0  0  0  0  0  0  0  0
   -1.7732   31.2094    2.2922 C   0  0  0  0  0  0  0  0  0  0  0  0
   -2.5272   30.8805    3.5604 C   0  0  0  0  0  0  0  0  0  0  0  0
   -3.5716   29.9096    3.1343 C   0  0  1  0  0  0  0  0  0  0  0  0
   -2.8576   28.6659    2.6403 C   0  0  0  0  0  0  0  0  0  0  0  0
   -2.2606   28.9938    1.2912 C   0  0  0  0  0  0  0  0  0  0  0  0
   -1.6697   30.3532    1.2957 C   0  0  0  0  0  0  0  0  0  0  0  0
   -4.6738   29.6310    4.0883 C   0  0  0  0  0  0  0  0  0  0  0  0
   -4.4393   27.1303    4.3955 C   0  0  0  0  0  0  0  0  0  0  0  0
   -4.9921   25.8661    4.2433 C   0  0  0  0  0  0  0  0  0  0  0  0
   -4.2897   24.7078    4.5161 C   0  0  0  0  0  0  0  0  0  0  0  0
   -6.1636   23.1538    4.0464 C   0  0  0  0  0  0  0  0  0  0  0  0
   -2.9866   24.8078    4.9572 C   0  0  0  0  0  0  0  0  0  0  0  0
   -2.2672   22.9971    6.4722 C   0  0  0  0  0  0  0  0  0  0  0  0
   -2.3973   26.0410    5.1224 C   0  0  0  0  0  0  0  0  0  0  0  0
   -0.4200   27.3366    5.7926 C   0  0  0  0  0  0  0  0  0  0  0  0
   -3.1418   27.1840    4.8359 C   0  0  0  0  0  0  0  0  0  0  0  0
   -0.9388   30.7417    0.1383 N   0  0  0  0  0  0  0  0  0  0  0  0
    1.1068   31.8190   -0.2089 N   0  0  0  0  0  0  0  0  0  0  0  0
   -0.4856   32.8829    1.1242 N   0  0  0  0  0  0  0  0  0  0  0  0
   -1.2286   33.4810    3.2336 N   0  0  0  0  0  0  0  0  0  0  0  0
   -5.2092   28.3186    4.1131 N   0  0  0  0  0  0  0  0  0  0  0  0
   -4.8353   23.4415    4.3660 O   0  0  0  0  0  0  0  0  0  0  0  0
   -2.2261   23.6887    5.2490 O   0  0  0  0  0  0  0  0  0  0  0  0
   -1.0799   26.1153    5.5689 O   0  0  0  0  0  0  0  0  0  0  0  0
   -6.6258   28.1216    3.8577 C   0  0  0  0  0  0  0  0  0  0  0  0
  2  3  1  0
  3  4  1  0
  4  5  1  0
  5  6  1  0
  6  7  1  0
  3  8  2  0
  7  8  1  0
  5  9  1  1
 10 11  2  0
 11 12  1  0
 12 14  2  0
 14 16  1  0
 10 18  1  0
 16 18  2  0
  1 19  1  0
  8 19  1  0
  1 20  1  1
  1 21  1  0
  2 21  2  0
  2 22  1  0
  9 23  1  0
 10 23  1  0
 12 24  1  0
 13 24  1  0
 14 25  1  0
 15 25  1  0
 16 26  1  0
 17 26  1  0
 23 27  1  0
M  END
$$$$
