1S3V_TQD_A_187
     RDKit          3D

 27 29  0  0  0  0  0  0  0  0999 V2000
   -0.0206   22.0003    3.8366 C   0  0  2  0  0  0  0  0  0  0  0  0
   -1.0865   23.7527    5.0938 C   0  0  0  0  0  0  0  0  0  0  0  0
   -2.4181   23.2319    4.8052 C   0  0  0  0  0  0  0  0  0  0  0  0
   -3.6195   23.9614    5.3616 C   0  0  0  0  0  0  0  0  0  0  0  0
   -4.7102   23.6842    4.3877 C   0  0  1  0  0  0  0  0  0  0  0  0
   -4.9740   22.1909    4.4177 C   0  0  0  0  0  0  0  0  0  0  0  0
   -3.8270   21.5153    3.7022 C   0  0  0  0  0  0  0  0  0  0  0  0
   -2.5364   22.1459    4.0682 C   0  0  0  0  0  0  0  0  0  0  0  0
   -5.9374   24.5134    4.4838 C   0  0  0  0  0  0  0  0  0  0  0  0
   -5.1698   26.3260    2.8937 C   0  0  0  0  0  0  0  0  0  0  0  0
   -4.8934   27.5621    3.4617 C   0  0  0  0  0  0  0  0  0  0  0  0
   -3.9449   28.4242    2.9454 C   0  0  0  0  0  0  0  0  0  0  0  0
   -4.2247   30.1760    4.6772 C   0  0  0  0  0  0  0  0  0  0  0  0
   -3.2422   28.0443    1.8208 C   0  0  0  0  0  0  0  0  0  0  0  0
   -2.1727   29.1211   -0.1255 C   0  0  0  0  0  0  0  0  0  0  0  0
   -3.4829   26.8272    1.2241 C   0  0  0  0  0  0  0  0  0  0  0  0
   -2.9775   25.2611   -0.6005 C   0  0  0  0  0  0  0  0  0  0  0  0
   -4.4485   25.9882    1.7775 C   0  0  0  0  0  0  0  0  0  0  0  0
   -1.3534   21.5186    3.5866 N   0  0  0  0  0  0  0  0  0  0  0  0
    0.7084   20.9781    4.5469 N   0  0  0  0  0  0  0  0  0  0  0  0
   -0.0099   23.1955    4.6566 N   0  0  0  0  0  0  0  0  0  0  0  0
   -0.9119   24.9308    5.8953 N   0  0  0  0  0  0  0  0  0  0  0  0
   -6.1781   25.4577    3.4542 N   0  0  0  0  0  0  0  0  0  0  0  0
   -3.6631   29.6603    3.5077 O   0  0  0  0  0  0  0  0  0  0  0  0
   -2.2788   28.8590    1.2515 O   0  0  0  0  0  0  0  0  0  0  0  0
   -2.7598   26.4668    0.0894 O   0  0  0  0  0  0  0  0  0  0  0  0
   -7.5125   25.5746    2.8918 C   0  0  0  0  0  0  0  0  0  0  0  0
  2  3  1  0
  3  4  1  0
  4  5  1  0
  5  6  1  0
  6  7  1  0
  3  8  2  0
  7  8  1  0
  5  9  1  1
 10 11  2  0
 11 12  1  0
 12 14  2  0
 14 16  1  0
 10 18  1  0
 16 18  2  0
  1 19  1  0
  8 19  1  0
  1 20  1  1
  1 21  1  0
  2 21  2  0
  2 22  1  0
  9 23  1  0
 10 23  1  0
 12 24  1  0
 13 24  1  0
 14 25  1  0
 15 25  1  0
 16 26  1  0
 17 26  1  0
 23 27  1  0
M  END
$$$$
