1S3V_TQD_A_187
     RDKit          3D

 27 29  0  0  0  0  0  0  0  0999 V2000
   -0.3402   31.8548   -0.0200 C   0  0  2  0  0  0  0  0  0  0  0  0
   -1.0664   32.5113    2.1775 C   0  0  0  0  0  0  0  0  0  0  0  0
   -1.6880   31.2151    2.4247 C   0  0  0  0  0  0  0  0  0  0  0  0
   -2.3791   30.9818    3.7487 C   0  0  0  0  0  0  0  0  0  0  0  0
   -3.4422   29.9852    3.4460 C   0  0  1  0  0  0  0  0  0  0  0  0
   -2.7520   28.7068    3.0102 C   0  0  0  0  0  0  0  0  0  0  0  0
   -2.2216   28.9335    1.6134 C   0  0  0  0  0  0  0  0  0  0  0  0
   -1.6324   30.2881    1.4897 C   0  0  0  0  0  0  0  0  0  0  0  0
   -4.4964   29.7800    4.4703 C   0  0  0  0  0  0  0  0  0  0  0  0
   -4.9683   27.2941    4.4919 C   0  0  0  0  0  0  0  0  0  0  0  0
   -3.6851   26.9673    4.9084 C   0  0  0  0  0  0  0  0  0  0  0  0
   -3.2670   25.6615    5.0800 C   0  0  0  0  0  0  0  0  0  0  0  0
   -0.9395   26.2222    5.7239 C   0  0  0  0  0  0  0  0  0  0  0  0
   -4.1581   24.6390    4.8288 C   0  0  0  0  0  0  0  0  0  0  0  0
   -2.7607   22.6797    4.2813 C   0  0  0  0  0  0  0  0  0  0  0  0
   -5.4414   24.9161    4.4142 C   0  0  0  0  0  0  0  0  0  0  0  0
   -7.6674   24.0684    3.8113 C   0  0  0  0  0  0  0  0  0  0  0  0
   -5.8215   26.2475    4.2536 C   0  0  0  0  0  0  0  0  0  0  0  0
   -0.9591   30.5890    0.2728 N   0  0  0  0  0  0  0  0  0  0  0  0
    1.0663   31.6326   -0.2513 N   0  0  0  0  0  0  0  0  0  0  0  0
   -0.4603   32.7953    1.0763 N   0  0  0  0  0  0  0  0  0  0  0  0
   -1.1003   33.5480    3.1698 N   0  0  0  0  0  0  0  0  0  0  0  0
   -5.3645   28.6706    4.3108 N   0  0  0  0  0  0  0  0  0  0  0  0
   -1.9868   25.3276    5.4960 O   0  0  0  0  0  0  0  0  0  0  0  0
   -3.8056   23.3090    4.9801 O   0  0  0  0  0  0  0  0  0  0  0  0
   -6.3223   23.8657    4.1673 O   0  0  0  0  0  0  0  0  0  0  0  0
   -6.7552   28.8987    3.9578 C   0  0  0  0  0  0  0  0  0  0  0  0
  2  3  1  0
  3  4  1  0
  4  5  1  0
  5  6  1  0
  6  7  1  0
  3  8  2  0
  7  8  1  0
  5  9  1  1
 10 11  2  0
 11 12  1  0
 12 14  2  0
 14 16  1  0
 10 18  1  0
 16 18  2  0
  1 19  1  0
  8 19  1  0
  1 20  1  1
  1 21  1  0
  2 21  2  0
  2 22  1  0
  9 23  1  0
 10 23  1  0
 12 24  1  0
 13 24  1  0
 14 25  1  0
 15 25  1  0
 16 26  1  0
 17 26  1  0
 23 27  1  0
M  END
$$$$
