1S3V_TQD_A_187
     RDKit          3D

 27 29  0  0  0  0  0  0  0  0999 V2000
   -0.2245   31.5257   -0.1093 C   0  0  2  0  0  0  0  0  0  0  0  0
   -0.8742   32.3702    2.0475 C   0  0  0  0  0  0  0  0  0  0  0  0
   -1.6630   31.1793    2.3428 C   0  0  0  0  0  0  0  0  0  0  0  0
   -2.3886   31.0988    3.6665 C   0  0  0  0  0  0  0  0  0  0  0  0
   -3.5714   30.2376    3.3936 C   0  0  1  0  0  0  0  0  0  0  0  0
   -3.0523   28.8614    3.0234 C   0  0  0  0  0  0  0  0  0  0  0  0
   -2.4863   28.9533    1.6251 C   0  0  0  0  0  0  0  0  0  0  0  0
   -1.7230   30.2118    1.4501 C   0  0  0  0  0  0  0  0  0  0  0  0
   -4.6510   30.2190    4.4118 C   0  0  0  0  0  0  0  0  0  0  0  0
   -4.5611   27.7082    4.7131 C   0  0  0  0  0  0  0  0  0  0  0  0
   -3.2642   27.6082    5.1979 C   0  0  0  0  0  0  0  0  0  0  0  0
   -2.5619   26.4183    5.2076 C   0  0  0  0  0  0  0  0  0  0  0  0
   -0.4977   27.3520    6.2145 C   0  0  0  0  0  0  0  0  0  0  0  0
   -3.1708   25.2820    4.7170 C   0  0  0  0  0  0  0  0  0  0  0  0
   -1.6859   23.6194    3.6576 C   0  0  0  0  0  0  0  0  0  0  0  0
   -4.4561   25.3341    4.2264 C   0  0  0  0  0  0  0  0  0  0  0  0
   -6.3675   24.1385    3.2493 C   0  0  0  0  0  0  0  0  0  0  0  0
   -5.1284   26.5550    4.2351 C   0  0  0  0  0  0  0  0  0  0  0  0
   -1.0069   30.3665    0.2303 N   0  0  0  0  0  0  0  0  0  0  0  0
    1.1421   31.1105   -0.3120 N   0  0  0  0  0  0  0  0  0  0  0  0
   -0.2278   32.5223    0.9430 N   0  0  0  0  0  0  0  0  0  0  0  0
   -0.7787   33.4462    2.9929 N   0  0  0  0  0  0  0  0  0  0  0  0
   -5.2584   28.9725    4.7070 N   0  0  0  0  0  0  0  0  0  0  0  0
   -1.2662   26.3108    5.6907 O   0  0  0  0  0  0  0  0  0  0  0  0
   -2.5251   24.0578    4.6967 O   0  0  0  0  0  0  0  0  0  0  0  0
   -5.0490   24.1726    3.7367 O   0  0  0  0  0  0  0  0  0  0  0  0
   -6.6705   28.9300    5.0456 C   0  0  0  0  0  0  0  0  0  0  0  0
  2  3  1  0
  3  4  1  0
  4  5  1  0
  5  6  1  0
  6  7  1  0
  3  8  2  0
  7  8  1  0
  5  9  1  1
 10 11  2  0
 11 12  1  0
 12 14  2  0
 14 16  1  0
 10 18  1  0
 16 18  2  0
  1 19  1  0
  8 19  1  0
  1 20  1  1
  1 21  1  0
  2 21  2  0
  2 22  1  0
  9 23  1  0
 10 23  1  0
 12 24  1  0
 13 24  1  0
 14 25  1  0
 15 25  1  0
 16 26  1  0
 17 26  1  0
 23 27  1  0
M  END
$$$$
