1L2S_STC_B_2115
     RDKit          3D

 19 20  0  0  0  0  0  0  0  0999 V2000
   66.6413    7.3954   43.2884 N   0  0  0  0  0  0  0  0  0  0  0  0
   65.8562    8.5376   43.4306 C   0  0  0  0  0  0  0  0  0  0  0  0
   64.6344    8.8302   42.9198 C   0  0  0  0  0  0  0  0  0  0  0  0
   66.3947    9.5389   44.2818 C   0  0  0  0  0  0  0  0  0  0  0  0
   63.9499   10.0213   43.2009 C   0  0  0  0  0  0  0  0  0  0  0  0
   65.7388   10.6965   44.5608 C   0  0  0  0  0  0  0  0  0  0  0  0
   64.5005   10.9711   44.0297 C   0  0  0  0  0  0  0  0  0  0  0  0
   63.6088   12.4337   44.3467 Cl  0  0  0  0  0  0  0  0  0  0  0  0
   67.8309    6.7557   44.3199 S   0  0  1  0  0  0  0  0  0  0  0  0
   67.1843    6.5676   45.9674 C   0  0  0  0  0  0  0  0  0  0  0  0
   68.3221    5.4425   43.8245 O   0  0  0  0  0  0  0  0  0  0  0  0
   68.9821    7.7280   44.3372 O   0  0  0  0  0  0  0  0  0  0  0  0
   66.2150    5.6150   46.2122 C   0  0  0  0  0  0  0  0  0  0  0  0
   67.5138    7.3210   47.0243 C   0  0  0  0  0  0  0  0  0  0  0  0
   65.7399    5.7280   47.8790 S   0  0  0  0  0  0  0  0  0  0  0  0
   65.6095    4.6409   45.2810 C   0  0  0  0  0  0  0  0  0  0  0  0
   66.9069    7.1045   48.1915 C   0  0  0  0  0  0  0  0  0  0  0  0
   65.8799    4.7200   43.9157 O   0  0  0  0  0  0  0  0  0  0  0  0
   64.8482    3.7237   45.6484 O   0  0  0  0  0  0  0  0  0  0  0  0
  1  2  1  0
  2  3  2  0
  2  4  1  0
  3  5  1  0
  4  6  2  0
  5  7  2  0
  6  7  1  0
  7  8  1  0
  9  1  1  6
  9 10  1  0
  9 11  2  0
  9 12  2  0
 10 13  2  0
 10 14  1  0
 13 15  1  0
 13 16  1  0
 14 17  2  0
 15 17  1  0
 16 18  1  0
 16 19  2  0
M  END
$$$$
