1L2S_STC_B_2115
     RDKit          3D

 19 20  0  0  0  0  0  0  0  0999 V2000
   56.7311   -3.7449  -59.5953 N   0  0  0  0  0  0  0  0  0  0  0  0
   57.7968   -4.5558  -59.2104 C   0  0  0  0  0  0  0  0  0  0  0  0
   58.8666   -4.9923  -59.9206 C   0  0  0  0  0  0  0  0  0  0  0  0
   57.7919   -4.9534  -57.8471 C   0  0  0  0  0  0  0  0  0  0  0  0
   59.8896   -5.7741  -59.3650 C   0  0  0  0  0  0  0  0  0  0  0  0
   58.7790   -5.7107  -57.2991 C   0  0  0  0  0  0  0  0  0  0  0  0
   59.8539   -6.1424  -58.0401 C   0  0  0  0  0  0  0  0  0  0  0  0
   61.1498   -7.1142  -57.3991 Cl  0  0  0  0  0  0  0  0  0  0  0  0
   55.4988   -3.0467  -58.6560 S   0  0  1  0  0  0  0  0  0  0  0  0
   53.9466   -3.1130  -59.5245 C   0  0  0  0  0  0  0  0  0  0  0  0
   55.3661   -3.7362  -57.3451 O   0  0  0  0  0  0  0  0  0  0  0  0
   55.8792   -1.6094  -58.4107 O   0  0  0  0  0  0  0  0  0  0  0  0
   53.7590   -4.0630  -60.5089 C   0  0  0  0  0  0  0  0  0  0  0  0
   52.9216   -2.2685  -59.3534 C   0  0  0  0  0  0  0  0  0  0  0  0
   52.1894   -3.8240  -61.2133 S   0  0  0  0  0  0  0  0  0  0  0  0
   54.6797   -5.1230  -60.9687 C   0  0  0  0  0  0  0  0  0  0  0  0
   51.8355   -2.4016  -60.1152 C   0  0  0  0  0  0  0  0  0  0  0  0
   56.0552   -4.8964  -60.9784 O   0  0  0  0  0  0  0  0  0  0  0  0
   54.2943   -6.2425  -61.3612 O   0  0  0  0  0  0  0  0  0  0  0  0
  1  2  1  0
  2  3  2  0
  2  4  1  0
  3  5  1  0
  4  6  2  0
  5  7  2  0
  6  7  1  0
  7  8  1  0
  9  1  1  6
  9 10  1  0
  9 11  2  0
  9 12  2  0
 10 13  2  0
 10 14  1  0
 13 15  1  0
 13 16  1  0
 14 17  2  0
 15 17  1  0
 16 18  1  0
 16 19  2  0
M  END
$$$$
