1L2S_STC_B_2115
     RDKit          3D

 19 20  0  0  0  0  0  0  0  0999 V2000
   75.6802    4.4643   24.2039 N   0  0  0  0  0  0  0  0  0  0  0  0
   74.6931    5.0190   25.0160 C   0  0  0  0  0  0  0  0  0  0  0  0
   73.8038    4.4208   25.8469 C   0  0  0  0  0  0  0  0  0  0  0  0
   74.6348    6.4380   25.0125 C   0  0  0  0  0  0  0  0  0  0  0  0
   72.8952    5.1347   26.6413 C   0  0  0  0  0  0  0  0  0  0  0  0
   73.7581    7.1390   25.7793 C   0  0  0  0  0  0  0  0  0  0  0  0
   72.8647    6.5096   26.6138 C   0  0  0  0  0  0  0  0  0  0  0  0
   71.7166    7.3487   27.6202 Cl  0  0  0  0  0  0  0  0  0  0  0  0
   77.0121    5.2025   23.4492 S   0  0  1  0  0  0  0  0  0  0  0  0
   77.8203    6.3189   24.5754 C   0  0  0  0  0  0  0  0  0  0  0  0
   77.9871    4.1882   22.9676 O   0  0  0  0  0  0  0  0  0  0  0  0
   76.4886    5.9720   22.2640 O   0  0  0  0  0  0  0  0  0  0  0  0
   78.4229    5.8186   25.7127 C   0  0  0  0  0  0  0  0  0  0  0  0
   77.8583    7.6523   24.4574 C   0  0  0  0  0  0  0  0  0  0  0  0
   79.0503    7.1500   26.6349 S   0  0  0  0  0  0  0  0  0  0  0  0
   78.5448    4.4168   26.1630 C   0  0  0  0  0  0  0  0  0  0  0  0
   78.4534    8.3724   25.4087 C   0  0  0  0  0  0  0  0  0  0  0  0
   79.2251    4.1199   27.3431 O   0  0  0  0  0  0  0  0  0  0  0  0
   78.0635    3.4515   25.5366 O   0  0  0  0  0  0  0  0  0  0  0  0
  1  2  1  0
  2  3  2  0
  2  4  1  0
  3  5  1  0
  4  6  2  0
  5  7  2  0
  6  7  1  0
  7  8  1  0
  9  1  1  1
  9 10  1  0
  9 11  2  0
  9 12  2  0
 10 13  2  0
 10 14  1  0
 13 15  1  0
 13 16  1  0
 14 17  2  0
 15 17  1  0
 16 18  1  0
 16 19  2  0
M  END
$$$$
