1L2S_STC_B_2115
     RDKit          3D

 19 20  0  0  0  0  0  0  0  0999 V2000
   79.9909    4.9010   30.5579 N   0  0  0  0  0  0  0  0  0  0  0  0
   81.0360    5.7733   30.2609 C   0  0  0  0  0  0  0  0  0  0  0  0
   81.1079    7.1233   30.3684 C   0  0  0  0  0  0  0  0  0  0  0  0
   82.2343    5.1521   29.8191 C   0  0  0  0  0  0  0  0  0  0  0  0
   82.2651    7.8567   30.0692 C   0  0  0  0  0  0  0  0  0  0  0  0
   83.3612    5.8542   29.5270 C   0  0  0  0  0  0  0  0  0  0  0  0
   83.4095    7.2236   29.6429 C   0  0  0  0  0  0  0  0  0  0  0  0
   84.8200    8.1810   29.2843 Cl  0  0  0  0  0  0  0  0  0  0  0  0
   78.3621    5.2329   30.9119 S   0  0  1  0  0  0  0  0  0  0  0  0
   77.6113    6.1384   29.5762 C   0  0  0  0  0  0  0  0  0  0  0  0
   77.5990    3.9800   31.1553 O   0  0  0  0  0  0  0  0  0  0  0  0
   78.3349    6.0678   32.1661 O   0  0  0  0  0  0  0  0  0  0  0  0
   77.5949    5.5906   28.3087 C   0  0  0  0  0  0  0  0  0  0  0  0
   77.0890    7.3682   29.6655 C   0  0  0  0  0  0  0  0  0  0  0  0
   76.8693    6.7357   27.2229 S   0  0  0  0  0  0  0  0  0  0  0  0
   78.1006    4.2792   27.8536 C   0  0  0  0  0  0  0  0  0  0  0  0
   76.6083    7.9517   28.5673 C   0  0  0  0  0  0  0  0  0  0  0  0
   78.0894    3.9599   26.4966 O   0  0  0  0  0  0  0  0  0  0  0  0
   78.5509    3.4119   28.6287 O   0  0  0  0  0  0  0  0  0  0  0  0
  1  2  1  0
  2  3  2  0
  2  4  1  0
  3  5  1  0
  4  6  2  0
  5  7  2  0
  6  7  1  0
  7  8  1  0
  9  1  1  6
  9 10  1  0
  9 11  2  0
  9 12  2  0
 10 13  2  0
 10 14  1  0
 13 15  1  0
 13 16  1  0
 14 17  2  0
 15 17  1  0
 16 18  1  0
 16 19  2  0
M  END
$$$$
