1L2S_STC_B_2115
     RDKit          3D

 19 20  0  0  0  0  0  0  0  0999 V2000
   80.6703    6.5586   36.1425 N   0  0  0  0  0  0  0  0  0  0  0  0
   80.3458    5.8827   34.9681 C   0  0  0  0  0  0  0  0  0  0  0  0
   79.8684    4.6268   34.7834 C   0  0  0  0  0  0  0  0  0  0  0  0
   80.4922    6.6394   33.7753 C   0  0  0  0  0  0  0  0  0  0  0  0
   79.5438    4.1067   33.5222 C   0  0  0  0  0  0  0  0  0  0  0  0
   80.1798    6.1444   32.5483 C   0  0  0  0  0  0  0  0  0  0  0  0
   79.6980    4.8668   32.3861 C   0  0  0  0  0  0  0  0  0  0  0  0
   79.2801    4.1733   30.8436 Cl  0  0  0  0  0  0  0  0  0  0  0  0
   81.8896    6.2387   37.2824 S   0  0  1  0  0  0  0  0  0  0  0  0
   83.4793    6.7108   36.6360 C   0  0  0  0  0  0  0  0  0  0  0  0
   81.6359    6.9605   38.5575 O   0  0  0  0  0  0  0  0  0  0  0  0
   81.8747    4.7565   37.5537 O   0  0  0  0  0  0  0  0  0  0  0  0
   84.1707    5.8331   35.8245 C   0  0  0  0  0  0  0  0  0  0  0  0
   84.1243    7.8517   36.9106 C   0  0  0  0  0  0  0  0  0  0  0  0
   85.7030    6.5451   35.4223 S   0  0  0  0  0  0  0  0  0  0  0  0
   83.7704    4.4939   35.3459 C   0  0  0  0  0  0  0  0  0  0  0  0
   85.3395    8.0508   36.3995 C   0  0  0  0  0  0  0  0  0  0  0  0
   82.4442    4.0797   35.4609 O   0  0  0  0  0  0  0  0  0  0  0  0
   84.5665    3.6844   34.8296 O   0  0  0  0  0  0  0  0  0  0  0  0
  1  2  1  0
  2  3  2  0
  2  4  1  0
  3  5  1  0
  4  6  2  0
  5  7  2  0
  6  7  1  0
  7  8  1  0
  9  1  1  6
  9 10  1  0
  9 11  2  0
  9 12  2  0
 10 13  2  0
 10 14  1  0
 13 15  1  0
 13 16  1  0
 14 17  2  0
 15 17  1  0
 16 18  1  0
 16 19  2  0
M  END
$$$$
