1L2S_STC_B_2115
     RDKit          3D

 19 20  0  0  0  0  0  0  0  0999 V2000
   52.4480   -0.0282   21.9273 N   0  0  0  0  0  0  0  0  0  0  0  0
   52.0402   -1.3041   22.3113 C   0  0  0  0  0  0  0  0  0  0  0  0
   52.7511   -2.4531   22.4275 C   0  0  0  0  0  0  0  0  0  0  0  0
   50.6749   -1.4147   22.6861 C   0  0  0  0  0  0  0  0  0  0  0  0
   52.1938   -3.6583   22.8784 C   0  0  0  0  0  0  0  0  0  0  0  0
   50.1255   -2.5782   23.1249 C   0  0  0  0  0  0  0  0  0  0  0  0
   50.8668   -3.7312   23.2334 C   0  0  0  0  0  0  0  0  0  0  0  0
   50.2237   -5.2525   23.7874 Cl  0  0  0  0  0  0  0  0  0  0  0  0
   51.6909    1.4748   22.1637 S   0  0  1  0  0  0  0  0  0  0  0  0
   51.9449    2.0392   23.8325 C   0  0  0  0  0  0  0  0  0  0  0  0
   52.2065    2.4923   21.2097 O   0  0  0  0  0  0  0  0  0  0  0  0
   50.2173    1.2808   21.9150 O   0  0  0  0  0  0  0  0  0  0  0  0
   53.2284    2.2854   24.2785 C   0  0  0  0  0  0  0  0  0  0  0  0
   50.9868    2.2036   24.7535 C   0  0  0  0  0  0  0  0  0  0  0  0
   53.1516    2.7447   25.9518 S   0  0  0  0  0  0  0  0  0  0  0  0
   54.5060    2.1828   23.5438 C   0  0  0  0  0  0  0  0  0  0  0  0
   51.3279    2.5799   25.9863 C   0  0  0  0  0  0  0  0  0  0  0  0
   55.7019    2.5262   24.1728 O   0  0  0  0  0  0  0  0  0  0  0  0
   54.5870    1.7971   22.3605 O   0  0  0  0  0  0  0  0  0  0  0  0
  1  2  1  0
  2  3  2  0
  2  4  1  0
  3  5  1  0
  4  6  2  0
  5  7  2  0
  6  7  1  0
  7  8  1  0
  9  1  1  1
  9 10  1  0
  9 11  2  0
  9 12  2  0
 10 13  2  0
 10 14  1  0
 13 15  1  0
 13 16  1  0
 14 17  2  0
 15 17  1  0
 16 18  1  0
 16 19  2  0
M  END
$$$$
