1L2S_STC_B_2115
     RDKit          3D

 19 20  0  0  0  0  0  0  0  0999 V2000
   77.0862    4.5474   25.6374 N   0  0  0  0  0  0  0  0  0  0  0  0
   75.8650    5.1789   25.8643 C   0  0  0  0  0  0  0  0  0  0  0  0
   74.6145    4.8365   25.4667 C   0  0  0  0  0  0  0  0  0  0  0  0
   75.9276    6.3402   26.6793 C   0  0  0  0  0  0  0  0  0  0  0  0
   73.4695    5.5631   25.8237 C   0  0  0  0  0  0  0  0  0  0  0  0
   74.8235    7.0510   27.0312 C   0  0  0  0  0  0  0  0  0  0  0  0
   73.5653    6.6844   26.6146 C   0  0  0  0  0  0  0  0  0  0  0  0
   72.1123    7.5513   27.0295 Cl  0  0  0  0  0  0  0  0  0  0  0  0
   78.6560    5.1968   25.5884 S   0  0  1  0  0  0  0  0  0  0  0  0
   79.0494    5.9805   27.1373 C   0  0  0  0  0  0  0  0  0  0  0  0
   79.6639    4.1443   25.2924 O   0  0  0  0  0  0  0  0  0  0  0  0
   78.6856    6.2202   24.4828 O   0  0  0  0  0  0  0  0  0  0  0  0
   78.8985    5.2737   28.3140 C   0  0  0  0  0  0  0  0  0  0  0  0
   79.4393    7.2524   27.2898 C   0  0  0  0  0  0  0  0  0  0  0  0
   79.2855    6.3247   29.6415 S   0  0  0  0  0  0  0  0  0  0  0  0
   78.4682    3.8743   28.5119 C   0  0  0  0  0  0  0  0  0  0  0  0
   79.6471    7.7257   28.5188 C   0  0  0  0  0  0  0  0  0  0  0  0
   78.3903    3.3438   29.7988 O   0  0  0  0  0  0  0  0  0  0  0  0
   78.1603    3.1127   27.5733 O   0  0  0  0  0  0  0  0  0  0  0  0
  1  2  1  0
  2  3  2  0
  2  4  1  0
  3  5  1  0
  4  6  2  0
  5  7  2  0
  6  7  1  0
  7  8  1  0
  9  1  1  1
  9 10  1  0
  9 11  2  0
  9 12  2  0
 10 13  2  0
 10 14  1  0
 13 15  1  0
 13 16  1  0
 14 17  2  0
 15 17  1  0
 16 18  1  0
 16 19  2  0
M  END
$$$$
