1KE5_LS1_A_299
     RDKit          3D

 23 25  0  0  0  0  0  0  0  0999 V2000
   -9.3741   52.6671   40.6547 N   0  0  0  0  0  0  0  0  0  0  0  0
   -9.8958   51.9686   39.5405 C   0  0  0  0  0  0  0  0  0  0  0  0
   -9.2985   50.6409   39.5920 C   0  0  0  0  0  0  0  0  0  0  0  0
   -7.6332   49.6346   41.2901 C   0  0  0  0  0  0  0  0  0  0  0  0
   -6.9039   49.8727   42.4259 C   0  0  0  0  0  0  0  0  0  0  0  0
   -6.9463   51.0981   43.0733 C   0  0  0  0  0  0  0  0  0  0  0  0
   -7.7461   52.0649   42.5344 C   0  0  0  0  0  0  0  0  0  0  0  0
   -8.4896   51.8420   41.3879 C   0  0  0  0  0  0  0  0  0  0  0  0
   -8.4320   50.6255   40.7665 C   0  0  0  0  0  0  0  0  0  0  0  0
  -10.7034   52.3537   38.6585 O   0  0  0  0  0  0  0  0  0  0  0  0
   -9.4518   49.6062   38.7952 C   0  0  0  0  0  0  0  0  0  0  0  0
  -10.3702   49.6055   37.6800 N   0  0  0  0  0  0  0  0  0  0  0  0
  -10.2337   48.4911   36.8007 C   0  0  0  0  0  0  0  0  0  0  0  0
   -9.2040   47.5857   36.8648 C   0  0  0  0  0  0  0  0  0  0  0  0
   -9.1444   46.5363   35.9474 C   0  0  0  0  0  0  0  0  0  0  0  0
  -10.1036   46.3821   34.9656 C   0  0  0  0  0  0  0  0  0  0  0  0
  -11.1251   47.3096   34.9309 C   0  0  0  0  0  0  0  0  0  0  0  0
  -11.2006   48.3531   35.8296 C   0  0  0  0  0  0  0  0  0  0  0  0
  -10.1061   45.1244   33.7812 S   0  0  2  0  0  6  0  0  0  0  0  0
   -9.1246   45.5246   32.7014 O   0  0  0  0  0  0  0  0  0  0  0  0
  -11.4723   45.0706   33.1492 O   0  0  0  0  0  0  0  0  0  0  0  0
   -9.6688   43.5848   34.3516 N   0  0  0  0  0  0  0  0  0  0  0  0
  -10.6519   43.1441   35.3213 C   0  0  0  0  0  0  0  0  0  0  0  0
  1  2  1  0
  2  3  1  0
  4  5  1  0
  5  6  2  0
  6  7  1  0
  1  8  1  0
  7  8  2  0
  3  9  1  0
  4  9  2  0
  8  9  1  0
  2 10  2  0
  3 11  2  0
 11 12  1  0
 12 13  1  0
 13 14  2  0
 14 15  1  0
 15 16  2  0
 16 17  1  0
 13 18  1  0
 17 18  2  0
 16 19  1  0
 19 20  2  0
 19 21  2  0
 19 22  1  1
 23 22  1  1
M  END
$$$$
