7EBG_J0L_A_502
     RDKit          3D

 28 29  0  0  0  0  0  0  0  0999 V2000
    3.8732    0.1807   16.0159 C   0  0  0  0  0  0  0  0  0  0  0  0
    3.9814   -0.1023   14.6422 C   0  0  0  0  0  0  0  0  0  0  0  0
    4.7644    0.7066   13.8090 C   0  0  0  0  0  0  0  0  0  0  0  0
    4.5512    1.2854   16.5829 C   0  0  0  0  0  0  0  0  0  0  0  0
    5.3294    2.0789   15.7211 C   0  0  0  0  0  0  0  0  0  0  0  0
    5.4328    1.7963   14.3698 C   0  0  0  0  0  0  0  0  0  0  0  0
    6.3224    2.7951   13.6771 C   0  0  2  0  0  0  0  0  0  0  0  0
    6.6866    3.6621   14.8539 C   0  0  0  0  0  0  0  0  0  0  0  0
    5.5482    3.5959   12.6209 C   0  0  2  0  0  0  0  0  0  0  0  0
    7.5666    2.1194   13.0841 C   0  0  1  0  0  0  0  0  0  0  0  0
    3.6858    0.7880   18.9324 C   0  0  1  0  0  0  0  0  0  0  0  0
    4.4536    1.5927   17.9876 N   0  0  0  0  0  0  0  0  0  0  0  0
    6.0892    3.2267   16.0692 N   0  0  0  0  0  0  0  0  0  0  0  0
    7.4391    4.6705   14.7891 O   0  0  0  0  0  0  0  0  0  0  0  0
    3.2589   -0.4678   16.6251 H   0  0  0  0  0  0  0  0  0  0  0  0
    3.4558   -0.9516   14.2253 H   0  0  0  0  0  0  0  0  0  0  0  0
    4.8474    0.4887   12.7523 H   0  0  0  0  0  0  0  0  0  0  0  0
    4.5999    3.9915   13.0457 H   0  0  0  0  0  0  0  0  0  0  0  0
    5.3020    2.9511   11.7503 H   0  0  0  0  0  0  0  0  0  0  0  0
    6.1585    4.4526   12.2627 H   0  0  0  0  0  0  0  0  0  0  0  0
    7.2844    1.4769   12.2228 H   0  0  0  0  0  0  0  0  0  0  0  0
    8.2893    2.8854   12.7297 H   0  0  0  0  0  0  0  0  0  0  0  0
    8.0698    1.4856   13.8465 H   0  0  0  0  0  0  0  0  0  0  0  0
    4.0750   -0.2516   18.9477 H   0  0  0  0  0  0  0  0  0  0  0  0
    3.7776    1.2149   19.9535 H   0  0  0  0  0  0  0  0  0  0  0  0
    2.6134    0.7874   18.6447 H   0  0  0  0  0  0  0  0  0  0  0  0
    4.9482    2.4272   18.3714 H   0  0  0  0  0  0  0  0  0  0  0  0
    6.2012    3.6734   17.0052 H   0  0  0  0  0  0  0  0  0  0  0  0
  1  2  2  0
  2  3  1  0
  1  4  1  0
  4  5  2  0
  3  6  2  0
  5  6  1  0
  6  7  1  0
  7  8  1  1
  7  9  1  0
  7 10  1  0
 11 12  1  0
  4 12  1  0
  5 13  1  0
  8 13  1  0
  8 14  2  0
  1 15  1  0
  2 16  1  0
  3 17  1  0
  9 18  1  1
  9 19  1  0
  9 20  1  0
 10 21  1  6
 10 22  1  0
 10 23  1  0
 11 24  1  1
 11 25  1  0
 11 26  1  0
 12 27  1  0
 13 28  1  0
M  END
