8H0M_2EH_A_405
     RDKit          3D

  9  8  0  0  0  0  0  0  0  0999 V2000
   25.5009   10.9885   13.9704 C   0  0  0  0  0  0  0  0  0  0  0  0
   25.5528    8.7305   15.0153 C   0  0  0  0  0  0  0  0  0  0  0  0
   27.0413    8.9361   15.2345 C   0  0  0  0  0  0  0  0  0  0  0  0
   23.3688    9.4463   11.9980 C   0  0  0  0  0  0  0  0  0  0  0  0
   25.1328    9.5166   13.7759 C   0  0  1  0  0  0  0  0  0  0  0  0
   25.5804   11.3650   15.3553 O   0  0  0  0  0  0  0  0  0  0  0  0
   23.6336    9.3362   13.5005 C   0  0  0  0  0  0  0  0  0  0  0  0
   21.8858    9.2291   11.7189 C   0  0  0  0  0  0  0  0  0  0  0  0
   21.6599    8.7485   10.2888 C   0  0  0  0  0  0  0  0  0  0  0  0
  2  3  1  0
  5  1  1  1
  2  5  1  0
  1  6  1  0
  4  7  1  0
  5  7  1  0
  4  8  1  0
  8  9  1  0
M  END
