
     RDKit          3D

 25 24  0  0  0  0  0  0  0  0999 V2000
  -19.9026    0.0603  -17.7643 C   0  0  0  0  0  0  0  0  0  0  0  0
  -20.6515    0.3244  -18.9344 O   0  0  0  0  0  0  0  0  0  0  0  0
  -19.4727   -1.3806  -17.7409 C   0  0  0  0  0  0  0  0  0  0  0  0
  -20.2909   -2.2352  -18.3980 F   0  0  0  0  0  0  0  0  0  0  0  0
  -18.3571   -1.8705  -17.1581 C   0  0  0  0  0  0  0  0  0  0  0  0
  -17.3703   -0.9811  -16.4367 C   0  0  0  0  0  0  0  0  0  0  0  0
  -17.9228   -3.3323  -17.1522 C   0  0  0  0  0  0  0  0  0  0  0  0
  -17.3653   -4.0038  -18.4175 C   0  0  0  0  0  0  0  0  0  0  0  0
  -18.2154   -5.1512  -18.9031 C   0  0  0  0  0  0  0  0  0  0  0  0
  -18.8703   -5.2628  -20.0777 C   0  0  0  0  0  0  0  0  0  0  0  0
  -18.8148   -4.2214  -21.1694 C   0  0  0  0  0  0  0  0  0  0  0  0
  -19.7540   -6.4497  -20.4503 C   0  0  0  0  0  0  0  0  0  0  0  0
  -20.5335   -7.1981  -19.3515 C   0  0  0  0  0  0  0  0  0  0  0  0
  -20.6829   -6.3951  -18.0842 C   0  0  0  0  0  0  0  0  0  0  0  0
  -21.3824   -5.2574  -17.9052 C   0  0  0  0  0  0  0  0  0  0  0  0
  -21.3770   -4.5626  -16.5704 C   0  0  0  0  0  0  0  0  0  0  0  0
  -22.2110   -4.5733  -18.9575 C   0  0  0  0  0  0  0  0  0  0  0  0
  -20.4917    1.7844  -19.5678 P   0  0  0  0  0  5  0  0  0  0  0  0
  -19.0855    2.2743  -19.6784 O   0  0  0  0  0  0  0  0  0  0  0  0
  -21.3750    2.7029  -18.6018 O   0  0  0  0  0  0  0  0  0  0  0  0
  -21.2969    1.7290  -20.9309 O   0  0  0  0  0  0  0  0  0  0  0  0
  -22.4705    2.6815  -21.3790 P   0  0  0  0  0  5  0  0  0  0  0  0
  -22.7470    2.2778  -22.8997 O   0  0  0  0  0  0  0  0  0  0  0  0
  -23.8048    2.1374  -20.6973 O   0  0  0  0  0  0  0  0  0  0  0  0
  -22.2740    4.1434  -21.1706 O   0  0  0  0  0  0  0  0  0  0  0  0
  1  2  1  0
  1  3  1  0
  3  4  1  0
  3  5  2  0
  5  6  1  0
  5  7  1  0
  7  8  1  0
  8  9  1  0
  9 10  2  0
 10 11  1  0
 10 12  1  0
 12 13  1  0
 13 14  1  0
 14 15  2  3
 15 16  1  0
 15 17  1  0
 18  2  1  0
 18 19  2  0
 18 20  1  0
 18 21  1  0
 21 22  1  0
 22 23  1  0
 22 24  1  0
 22 25  2  0
M  END
