1W1P_GIO_B_1501
     RDKit          3D

 21 22  0  0  0  0  0  0  0  0999 V2000
   42.9378   73.0589   49.4444 O   0  0  0  0  0  0  0  0  0  0  0  0
   43.3143   73.8189   50.3344 C   0  0  0  0  0  0  0  0  0  0  0  0
   42.3089   74.3381   51.3499 C   0  0  2  0  0  0  0  0  0  0  0  0
   40.9078   74.4765   50.7317 C   0  0  0  0  0  0  0  0  0  0  0  0
   40.2710   75.4168   51.7401 C   0  0  0  0  0  0  0  0  0  0  0  0
   41.3575   76.5015   51.8750 C   0  0  0  0  0  0  0  0  0  0  0  0
   42.6062   75.7281   51.7168 N   0  0  0  0  0  0  0  0  0  0  0  0
   43.9485   76.1631   51.7697 C   0  0  0  0  0  0  0  0  0  0  0  0
   44.2131   77.3286   52.0556 O   0  0  0  0  0  0  0  0  0  0  0  0
   45.0919   75.2077   51.4530 C   0  0  0  0  0  0  0  0  0  0  0  0
   44.6595   74.2387   50.4202 N   0  0  0  0  0  0  0  0  0  0  0  0
   42.3647   73.6464   52.1642 H   0  0  0  0  0  0  0  0  0  0  0  0
   40.3870   73.5391   50.6867 H   0  0  0  0  0  0  0  0  0  0  0  0
   40.8948   74.8252   49.7206 H   0  0  0  0  0  0  0  0  0  0  0  0
   40.0912   74.9250   52.6732 H   0  0  0  0  0  0  0  0  0  0  0  0
   39.3101   75.7841   51.4376 H   0  0  0  0  0  0  0  0  0  0  0  0
   41.3225   76.9680   52.8322 H   0  0  0  0  0  0  0  0  0  0  0  0
   41.2562   77.3003   51.1713 H   0  0  0  0  0  0  0  0  0  0  0  0
   45.3697   74.6801   52.3418 H   0  0  0  0  0  0  0  0  0  0  0  0
   45.9315   75.7715   51.0859 H   0  0  0  0  0  0  0  0  0  0  0  0
   45.3220   73.8875   49.7901 H   0  0  0  0  0  0  0  0  0  0  0  0
  1  2  2  0
  2  3  1  0
  3  4  1  0
  4  5  1  0
  5  6  1  0
  3  7  1  0
  6  7  1  0
  7  8  1  0
  8  9  2  0
  8 10  1  0
  2 11  1  0
 10 11  1  0
  3 12  1  1
  4 13  1  0
  4 14  1  0
  5 15  1  0
  5 16  1  0
  6 17  1  0
  6 18  1  0
 10 19  1  0
 10 20  1  0
 11 21  1  0
M  END
