@<TRIPOS>MOLECULE
1W1P_GIO_B_1501
 21 22 0 0 0
SMALL
GASTEIGER

@<TRIPOS>ATOM
      1 O           2.2095   -1.8305    0.3576 O.2     1  PRO1       -0.2738
      2 C           1.2822   -1.0155    0.6113 C.2     1  PRO1        0.2340
      3 CA          0.1541   -0.8132   -0.3667 C.3     1  PRO1        0.1022
      4 CB          0.5968   -0.8202   -1.8297 C.3     1  PRO1       -0.0243
      5 CG         -0.2992    0.2093   -2.5182 C.3     1  PRO1       -0.0350
      6 CD         -0.7268    1.1803   -1.4222 C.3     1  PRO1        0.0156
      7 N          -0.4607    0.4898   -0.1733 N.am    1  PRO1       -0.2886
      8 C          -0.5478    1.1138    1.1146 C.2     2  GLY2        0.2334
      9 O          -1.1758    2.1967    1.2594 O.2     2  GLY2       -0.2739
     10 CA          0.1003    0.4548    2.2952 C.3     2  GLY2        0.0884
     11 N           1.2620   -0.3268    1.8692 N.am    2  GLY2       -0.3052
     12 HA         -0.6129   -1.6003   -0.1977 H       1  PRO1        0.0597
     13 HB1         1.6563   -0.4922   -1.9240 H       1  PRO1        0.0288
     14 HB2         0.4813   -1.8278   -2.2846 H       1  PRO1        0.0288
     15 HG1        -1.1956   -0.3002   -2.9355 H       1  PRO1        0.0281
     16 HG2         0.2399    0.7322   -3.3379 H       1  PRO1        0.0281
     17 HD1        -1.8071    1.4269   -1.5059 H       1  PRO1        0.0465
     18 HD2        -0.1187    2.1098   -1.4732 H       1  PRO1        0.0465
     19 HA1         0.4223    1.2246    3.0291 H       2  GLY2        0.0558
     20 HA2        -0.6352   -0.2190    2.7826 H       2  GLY2        0.0558
     21 H           2.0396   -0.4847    2.5490 H       2  GLY2        0.1492
@<TRIPOS>BOND
     1     1     2    2
     2     2     3    1
     3     3     4    1
     4     4     5    1
     5     5     6    1
     6     3     7    1
     7     6     7    1
     8     7     8   am
     9     8     9    2
    10     8    10    1
    11     2    11   am
    12    10    11    1
    13     3    12    1
    14     4    13    1
    15     4    14    1
    16     5    15    1
    17     5    16    1
    18     6    17    1
    19     6    18    1
    20    10    19    1
    21    10    20    1
    22    11    21    1
