@<TRIPOS>MOLECULE
1W1P_GIO_B_1501
 21 22 0 0 0
SMALL
GASTEIGER

@<TRIPOS>ATOM
      1 O          43.2690   77.8320   53.3530 O.2     1  PRO1       -0.2738
      2 C          43.6110   76.9400   52.5780 C.2     1  PRO1        0.2340
      3 CA         42.6270   76.4090   51.5360 C.3     1  PRO1        0.1022
      4 CB         41.1860   76.4810   52.0440 C.3     1  PRO1       -0.0243
      5 CG         40.5150   75.4970   51.0830 C.3     1  PRO1       -0.0350
      6 CD         41.4670   74.2990   51.1510 C.3     1  PRO1        0.0156
      7 N          42.7800   74.9600   51.3370 N.am    1  PRO1       -0.2886
      8 C          44.0560   74.3900   51.4430 C.2     2  GLY2        0.2334
      9 O          44.1980   73.1760   51.2990 O.2     2  GLY2       -0.2739
     10 CA         45.2760   75.2600   51.7590 C.3     2  GLY2        0.0884
     11 N          44.8940   76.3810   52.6500 N.am    2  GLY2       -0.3052
     12 HA         42.8201   76.9963   50.6627 H       1  PRO1        0.0597
     13 HB1        40.7807   77.4668   51.9498 H       1  PRO1        0.0288
     14 HB2        41.0624   76.2520   53.0819 H       1  PRO1        0.0288
     15 HG1        40.4601   75.8959   50.0916 H       1  PRO1        0.0281
     16 HG2        39.5026   75.2625   51.3381 H       1  PRO1        0.0281
     17 HD1        41.4425   73.7309   50.2446 H       1  PRO1        0.0465
     18 HD2        41.2238   73.5975   51.9215 H       1  PRO1        0.0465
     19 HA1        45.6737   75.6541   50.8472 H       2  GLY2        0.0558
     20 HA2        46.0120   74.6599   52.2520 H       2  GLY2        0.0558
     21 H          45.5461   76.7354   53.2969 H       2  GLY2        0.1492
@<TRIPOS>BOND
     1     1     2    2
     2     2     3    1
     3     3     4    1
     4     4     5    1
     5     5     6    1
     6     3     7    1
     7     6     7    1
     8     7     8   am
     9     8     9    2
    10     8    10    1
    11     2    11   am
    12    10    11    1
    13     3    12    1
    14     4    13    1
    15     4    14    1
    16     5    15    1
    17     5    16    1
    18     6    17    1
    19     6    18    1
    20    10    19    1
    21    10    20    1
    22    11    21    1
