
     RDKit          3D

 23 25  0  0  0  0  0  0  0  0999 V2000
  -44.3940   34.7675    7.0335 P   0  0  0  0  0  5  0  0  0  0  0  0
  -45.1063   33.7914    6.1646 O   0  0  0  0  0  0  0  0  0  0  0  0
  -45.1757   36.1506    7.1257 O   0  0  0  0  0  0  0  0  0  0  0  0
  -42.9669   35.1886    6.4651 O   0  0  0  0  0  0  0  0  0  0  0  0
  -44.1593   34.3260    8.5475 O   0  0  0  0  0  0  0  0  0  0  0  0
  -44.7471   33.1113    8.9971 C   0  0  0  0  0  0  0  0  0  0  0  0
  -44.2884   32.8455   10.4362 C   0  0  1  0  0  0  0  0  0  0  0  0
  -43.7125   31.5211   10.5307 O   0  0  0  0  0  0  0  0  0  0  0  0
  -43.1734   33.7747   10.8888 C   0  0  1  0  0  0  0  0  0  0  0  0
  -43.0828   33.7931   12.3138 O   0  0  0  0  0  0  0  0  0  0  0  0
  -41.9346   33.1119   10.3336 C   0  0  0  0  0  0  0  0  0  0  0  0
  -42.2735   31.6294   10.4314 C   0  0  2  0  0  0  0  0  0  0  0  0
  -41.8018   30.8279    9.3178 N   0  0  0  0  0  0  0  0  0  0  0  0
  -42.2959   30.8043    8.0370 C   0  0  0  0  0  0  0  0  0  0  0  0
  -41.6398   29.9602    7.2662 N   0  0  0  0  0  0  0  0  0  0  0  0
  -40.7147   29.3864    8.1023 C   0  0  0  0  0  0  0  0  0  0  0  0
  -39.7091   28.3771    7.8513 C   0  0  0  0  0  0  0  0  0  0  0  0
  -39.4742   27.8367    6.7770 O   0  0  0  0  0  0  0  0  0  0  0  0
  -38.9785   28.0690    8.9927 N   0  0  0  0  0  0  0  0  0  0  0  0
  -39.1481   28.6754   10.2182 C   0  0  0  0  0  0  0  0  0  0  0  0
  -38.3169   28.2624   11.2061 N   0  0  0  0  0  0  0  0  0  0  0  0
  -40.0414   29.5967   10.4572 N   0  0  0  0  0  0  0  0  0  0  0  0
  -40.7948   29.9047    9.3738 C   0  0  0  0  0  0  0  0  0  0  0  0
  1  2  2  0
  1  3  1  0
  1  4  1  0
  1  5  1  0
  5  6  1  0
  7  6  1  6
  7  8  1  0
  7  9  1  0
  9 10  1  1
  9 11  1  0
  8 12  1  0
 11 12  1  0
 12 13  1  6
 13 14  4  0
 14 15  4  0
 15 16  4  0
 16 17  4  0
 17 18  2  0
 17 19  4  0
 19 20  4  0
 20 21  1  0
 20 22  4  0
 13 23  4  0
 16 23  4  0
 22 23  4  0
M  END
