8FLV_ZB9_A_701
     RDKit          3D

 29 32  0  0  0  0  0  0  0  0999 V2000
  -15.6706    5.8862  -19.6676 N   0  0  0  0  0  0  0  0  0  0  0  0
  -17.5988    5.0171  -16.2504 N   0  0  0  0  0  0  0  0  0  0  0  0
  -17.0943    5.2288  -17.4716 C   0  0  0  0  0  0  0  0  0  0  0  0
  -15.6830    6.0547  -16.0119 C   0  0  0  0  0  0  0  0  0  0  0  0
  -16.7547    5.5136  -15.3249 C   0  0  0  0  0  0  0  0  0  0  0  0
  -13.2129    7.2704  -19.5903 C   0  0  0  0  0  0  0  0  0  0  0  0
  -13.2609    7.2456  -17.1204 C   0  0  1  0  0  0  0  0  0  0  0  0
  -12.8300    8.8959  -15.3889 C   0  0  0  0  0  0  0  0  0  0  0  0
  -10.0428    6.8307  -15.2785 C   0  0  0  0  0  0  0  0  0  0  0  0
  -10.2501    6.8390  -11.6186 C   0  0  0  0  0  0  0  0  0  0  0  0
  -11.4727    7.6904   -9.7006 C   0  0  0  0  0  0  0  0  0  0  0  0
  -10.2209    5.5967  -11.0314 C   0  0  0  0  0  0  0  0  0  0  0  0
  -16.8594    5.2447  -19.7673 C   0  0  0  0  0  0  0  0  0  0  0  0
  -12.3609    7.6144  -14.7358 C   0  0  0  0  0  0  0  0  0  0  0  0
  -11.9469    6.5099  -16.9077 C   0  0  0  0  0  0  0  0  0  0  0  0
   -9.7576    6.1527  -13.9885 C   0  0  0  0  0  0  0  0  0  0  0  0
  -10.8807    7.8473  -10.9240 C   0  0  0  0  0  0  0  0  0  0  0  0
  -11.4413    6.4443   -9.1162 C   0  0  0  0  0  0  0  0  0  0  0  0
  -10.8155    5.4237   -9.7951 C   0  0  0  0  0  0  0  0  0  0  0  0
  -15.1327    6.2310  -18.4844 C   0  0  0  0  0  0  0  0  0  0  0  0
  -15.8752    5.8873  -17.3572 C   0  0  0  0  0  0  0  0  0  0  0  0
  -12.9901    8.6909  -16.9023 C   0  0  0  0  0  0  0  0  0  0  0  0
  -17.5810    4.9107  -18.6710 N   0  0  0  0  0  0  0  0  0  0  0  0
  -13.8870    6.9055  -18.3559 N   0  0  0  0  0  0  0  0  0  0  0  0
  -11.4106    6.9752  -15.6422 N   0  0  0  0  0  0  0  0  0  0  0  0
   -9.6656    7.0864  -12.8869 N   0  0  0  0  0  0  0  0  0  0  0  0
   -9.1601    7.2740  -16.0495 O   0  0  0  0  0  0  0  0  0  0  0  0
  -10.7984    3.8414   -9.0089 Cl  0  0  0  0  0  0  0  0  0  0  0  0
  -12.2570    9.0293   -8.8808 Cl  0  0  0  0  0  0  0  0  0  0  0  0
  2  3  1  0
  2  5  1  0
  4  5  2  0
 10 12  2  0
  1 13  2  0
  8 14  1  1
  7 15  1  0
  9 16  1  0
 10 17  1  0
 11 17  2  0
 11 18  1  0
 12 19  1  0
 18 19  2  0
  1 20  1  0
 20 21  2  0
  3 21  1  0
  4 21  1  0
  7 22  1  0
 22  8  1  6
 13 23  1  0
  3 23  2  0
  6 24  1  1
 20 24  1  0
  7 24  1  6
 15 25  1  1
 14 25  1  6
  9 25  1  0
 16 26  1  1
 10 26  1  0
  9 27  2  0
 19 28  1  0
 11 29  1  0
M  END
$$$$
