7JUD_MMA_A_803
     RDKit          3D

 27 27  0  0  0  0  0  0  0  0999 V2000
  -13.6629   -9.0909    7.8511 C   0  0  2  0  0  0  0  0  0  0  0  0
  -12.4906   -8.7511    8.7532 C   0  0  1  0  0  0  0  0  0  0  0  0
  -12.3171   -7.2821    8.8926 C   0  0  1  0  0  0  0  0  0  0  0  0
  -13.5666   -6.6199    9.3758 C   0  0  2  0  0  0  0  0  0  0  0  0
  -14.7248   -6.9066    8.4170 C   0  0  2  0  0  0  0  0  0  0  0  0
  -16.0118   -6.3372    8.9520 C   0  0  0  0  0  0  0  0  0  0  0  0
  -12.0388   -8.1793    6.4371 C   0  0  0  0  0  0  0  0  0  0  0  0
  -13.3368   -8.7213    6.5819 O   0  0  0  0  0  0  0  0  0  0  0  0
  -12.7352   -9.3289   10.0503 O   0  0  0  0  0  0  0  0  0  0  0  0
  -11.2532   -7.0170    9.8486 O   0  0  0  0  0  0  0  0  0  0  0  0
  -13.2987   -5.2183    9.4739 O   0  0  0  0  0  0  0  0  0  0  0  0
  -14.8993   -8.3591    8.2628 O   0  0  0  0  0  0  0  0  0  0  0  0
  -16.3847   -5.2116    8.1948 O   0  0  0  0  0  0  0  0  0  0  0  0
  -13.8590  -10.1406    7.9175 H   0  0  0  0  0  0  0  0  0  0  0  0
  -11.5952   -9.1460    8.3194 H   0  0  0  0  0  0  0  0  0  0  0  0
  -12.0756   -6.8870    7.9281 H   0  0  0  0  0  0  0  0  0  0  0  0
  -13.8569   -6.9994   10.3331 H   0  0  0  0  0  0  0  0  0  0  0  0
  -14.4916   -6.4540    7.4758 H   0  0  0  0  0  0  0  0  0  0  0  0
  -16.7814   -7.0782    8.8902 H   0  0  0  0  0  0  0  0  0  0  0  0
  -15.8733   -6.0468    9.9721 H   0  0  0  0  0  0  0  0  0  0  0  0
  -11.8733   -7.9195    5.4123 H   0  0  0  0  0  0  0  0  0  0  0  0
  -11.9480   -7.3040    7.0459 H   0  0  0  0  0  0  0  0  0  0  0  0
  -11.3134   -8.9044    6.7433 H   0  0  0  0  0  0  0  0  0  0  0  0
  -13.5502   -8.9559   10.4220 H   0  0  0  0  0  0  0  0  0  0  0  0
  -11.4963   -7.3844   10.7127 H   0  0  0  0  0  0  0  0  0  0  0  0
  -13.0359   -4.8776    8.6046 H   0  0  0  0  0  0  0  0  0  0  0  0
  -16.5109   -5.4724    7.2693 H   0  0  0  0  0  0  0  0  0  0  0  0
  1  2  1  0
  2  3  1  0
  3  4  1  0
  4  5  1  0
  5  6  1  0
  1  8  1  0
  7  8  1  0
  2  9  1  0
  3 10  1  0
  4 11  1  0
  1 12  1  0
  5 12  1  0
  6 13  1  0
  1 14  1  1
  2 15  1  1
  3 16  1  1
  4 17  1  6
  5 18  1  1
  6 19  1  0
  6 20  1  0
  7 21  1  0
  7 22  1  0
  7 23  1  0
  9 24  1  0
 10 25  1  0
 11 26  1  0
 13 27  1  0
M  END
