7T9O_GEI_A_304
     RDKit          3D

 41 44  0  0  0  0  0  0  0  0999 V2000
    0.8138   33.1508    8.4207 C   0  0  1  0  0  0  0  0  0  0  0  0
    1.0677   31.8111    9.0311 C   0  0  0  0  0  0  0  0  0  0  0  0
   -0.0385   30.7941    8.7332 C   0  0  0  0  0  0  0  0  0  0  0  0
   -0.0029   33.0521    7.1389 C   0  0  0  0  0  0  0  0  0  0  0  0
    0.3745   31.7324    6.4975 C   0  0  0  0  0  0  0  0  0  0  0  0
    0.0399   34.0453    9.3554 C   0  0  0  0  0  0  0  0  0  0  0  0
    2.1398   33.8045    8.1056 C   0  0  0  0  0  0  0  0  0  0  0  0
    2.8782   28.6501    4.7119 C   0  0  1  0  0  0  0  0  0  0  0  0
    3.4059   29.9056    5.3917 C   0  0  0  0  0  0  0  0  0  0  0  0
   -2.7338   30.3528    6.7033 C   0  0  0  0  0  0  0  0  0  0  0  0
    2.4007   27.7521    8.0160 C   0  0  0  0  0  0  0  0  0  0  0  0
   -6.4092   35.6440    7.9973 C   0  0  0  0  0  0  0  0  0  0  0  0
   -2.9826   31.3087    5.7408 C   0  0  0  0  0  0  0  0  0  0  0  0
   -5.2220   34.7883    7.6646 C   0  0  0  0  0  0  0  0  0  0  0  0
   -1.8126   29.2451    6.4805 C   0  0  0  0  0  0  0  0  0  0  0  0
   -2.3517   28.1074    5.9221 C   0  0  0  0  0  0  0  0  0  0  0  0
   -1.5187   27.0832    5.7087 N   0  0  0  0  0  0  0  0  0  0  0  0
   -0.2092   27.1217    6.0114 C   0  0  0  0  0  0  0  0  0  0  0  0
    0.3851   28.2644    6.5838 C   0  0  0  0  0  0  0  0  0  0  0  0
   -0.4464   29.3344    6.8143 C   0  0  0  0  0  0  0  0  0  0  0  0
   -0.0446   30.6024    7.2845 N   0  0  0  0  0  0  0  0  0  0  0  0
    1.8224   28.2151    6.7615 C   0  0  2  0  0  0  0  0  0  0  0  0
    0.5791   25.8982    5.7279 C   0  0  0  0  0  0  0  0  0  0  0  0
   -3.7796   27.9772    5.5580 C   0  0  0  0  0  0  0  0  0  0  0  0
    1.6194   27.9869    9.1897 O   0  0  0  0  0  0  0  0  0  0  0  0
    2.5668   27.7636    5.6961 O   0  0  0  0  0  0  0  0  0  0  0  0
    3.4734   27.1799    8.2380 O   0  0  0  0  0  0  0  0  0  0  0  0
    1.7238   29.0915    3.8569 C   0  0  0  0  0  0  0  0  0  0  0  0
    3.9741   28.1187    3.8426 C   0  0  0  0  0  0  0  0  0  0  0  0
   -3.8864   32.3502    5.9820 C   0  0  0  0  0  0  0  0  0  0  0  0
   -4.5625   32.4741    7.1722 C   0  0  0  0  0  0  0  0  0  0  0  0
   -4.2883   31.4913    8.1237 C   0  0  0  0  0  0  0  0  0  0  0  0
   -3.4111   30.4657    7.9109 C   0  0  0  0  0  0  0  0  0  0  0  0
   -5.4509   33.4360    7.5134 O   0  0  0  0  0  0  0  0  0  0  0  0
   -6.0253   37.0963    8.0495 C   0  0  0  0  0  0  0  0  0  0  0  0
   -5.3013   37.5971    9.1335 C   0  0  0  0  0  0  0  0  0  0  0  0
   -4.9530   38.9253    9.1771 C   0  0  0  0  0  0  0  0  0  0  0  0
   -5.3245   39.7606    8.1405 C   0  0  0  0  0  0  0  0  0  0  0  0
   -6.0473   39.2347    7.0693 C   0  0  0  0  0  0  0  0  0  0  0  0
   -6.4053   37.9061    7.0088 C   0  0  0  0  0  0  0  0  0  0  0  0
   -4.9731   41.0695    8.1982 F   0  0  0  0  0  0  0  0  0  0  0  0
  1  2  1  0
  2  3  1  6
  1  4  1  0
  4  5  1  1
  1  6  1  1
  7  1  1  1
  9  8  1  1
 10 13  2  0
 12 14  1  0
 10 15  1  0
 15 16  2  0
 16 17  1  0
 17 18  2  0
 18 19  1  0
 15 20  1  0
 19 20  2  0
  5 21  1  6
 20 21  1  0
  3 21  1  1
 19 22  1  0
 11 22  1  0
 23 18  1  6
 24 16  1  1
 11 25  1  0
  8 26  1  1
 22 26  1  6
 11 27  2  0
 28  8  1  1
 29  8  1  1
 13 30  1  0
 30 31  2  0
 31 32  1  0
 32 33  2  0
 10 33  1  0
 31 34  1  0
 14 34  1  6
 12 35  1  6
 35 36  2  0
 36 37  1  0
 37 38  2  0
 38 39  1  0
 39 40  2  0
 35 40  1  0
 38 41  1  0
M  END
$$$$
