7N03_ZRP_A_201
     RDKit          3D

 28 30  0  0  0  0  0  0  0  0999 V2000
  -39.5297   11.8521    2.0840 C   0  0  0  0  0  0  0  0  0  0  0  0
  -40.9445   11.7276    1.6441 C   0  0  0  0  0  0  0  0  0  0  0  0
  -41.3930   10.3715    1.3043 C   0  0  0  0  0  0  0  0  0  0  0  0
  -47.2348   10.1866    1.8778 C   0  0  0  0  0  0  0  0  0  0  0  0
  -48.0725   10.7858    2.8165 C   0  0  0  0  0  0  0  0  0  0  0  0
  -47.5580   11.7554    3.6537 C   0  0  0  0  0  0  0  0  0  0  0  0
  -46.2312   12.1248    3.5604 C   0  0  0  0  0  0  0  0  0  0  0  0
  -45.4313   11.5104    2.6193 C   0  0  0  0  0  0  0  0  0  0  0  0
  -45.6852   13.1049    4.3972 C   0  0  0  0  0  0  0  0  0  0  0  0
  -46.5072   13.7034    5.3294 C   0  0  0  0  0  0  0  0  0  0  0  0
  -47.8296   13.3186    5.4048 C   0  0  0  0  0  0  0  0  0  0  0  0
  -45.9193   14.7218    6.1913 C   0  0  0  0  0  0  0  0  0  0  0  0
  -46.2612   16.5838    7.8200 C   0  0  0  0  0  0  0  0  0  0  0  0
  -41.0746   11.6447    4.5276 C   0  0  0  0  0  0  0  0  0  0  0  0
  -41.4333   10.4954    5.2074 C   0  0  0  0  0  0  0  0  0  0  0  0
  -42.7617   10.3235    5.5733 C   0  0  0  0  0  0  0  0  0  0  0  0
  -43.7105   11.2985    5.2565 C   0  0  0  0  0  0  0  0  0  0  0  0
  -44.7505   15.1018    5.9232 O   0  0  0  0  0  0  0  0  0  0  0  0
  -46.6009   15.2920    7.3019 N   0  0  0  0  0  0  0  0  0  0  0  0
  -48.3356   12.3732    4.5902 N   0  0  0  0  0  0  0  0  0  0  0  0
  -44.3139   13.4414    4.2528 N   0  0  0  0  0  0  0  0  0  0  0  0
  -43.3350   12.4391    4.5778 C   0  0  0  0  0  0  0  0  0  0  0  0
  -42.0145   12.6078    4.2152 C   0  0  0  0  0  0  0  0  0  0  0  0
  -45.9043   10.5383    1.7643 C   0  0  0  0  0  0  0  0  0  0  0  0
  -45.0477    9.9103    0.7883 N   0  0  0  0  0  0  0  0  0  0  0  0
  -43.7243   10.4512    0.6574 C   0  0  0  0  0  0  0  0  0  0  0  0
  -42.7454    9.9019    1.7039 C   0  0  0  0  0  0  0  0  0  0  0  0
  -39.3616   12.0481    3.5452 C   0  0  0  0  0  0  0  0  0  0  0  0
  2  1  1  6
  3  2  1  6
  4  5  2  0
  5  6  1  0
  6  7  2  0
  7  8  1  0
  7  9  1  0
  9 10  2  0
 10 11  1  0
 10 12  1  0
 14 15  2  0
 15 16  1  0
 16 17  2  0
 12 18  2  0
 12 19  1  0
 13 19  1  1
  6 20  1  0
 11 20  2  0
  9 21  1  0
 21 22  1  0
 17 22  1  0
 14 23  1  0
 22 23  2  0
  4 24  1  0
  8 24  2  0
 24 25  1  0
 26 25  1  6
 27 26  1  1
  3 27  1  0
  1 28  1  1
M  END
$$$$
