
     RDKit          3D

 24 25  0  0  0  0  0  0  0  0999 V2000
   71.8210   -2.4096    0.3147 C   0  0  0  0  0  0  0  0  0  0  0  0
   66.9937    0.9392   -4.2067 C   0  0  0  0  0  0  0  0  0  0  0  0
   66.5942    1.1505   -5.5260 C   0  0  0  0  0  0  0  0  0  0  0  0
   67.4532    1.8255   -6.3760 C   0  0  0  0  0  0  0  0  0  0  0  0
   69.0159    2.0739   -4.7090 C   0  0  0  0  0  0  0  0  0  0  0  0
   70.4484    0.6211   -0.7865 C   0  0  0  0  0  0  0  0  0  0  0  0
   68.6973    1.1983   -2.3792 C   0  0  0  0  0  0  0  0  0  0  0  0
   67.8256    1.3769   -1.2889 C   0  0  0  0  0  0  0  0  0  0  0  0
   69.5737    0.8150    0.2839 C   0  0  0  0  0  0  0  0  0  0  0  0
   68.2577    1.1900    0.0284 C   0  0  0  0  0  0  0  0  0  0  0  0
   72.3771   -3.3610    1.3957 C   0  0  1  0  0  0  0  0  0  0  0  0
   68.2379    1.4035   -3.7618 C   0  0  0  0  0  0  0  0  0  0  0  0
   67.5327    1.0361   -8.5757 C   0  0  0  0  0  0  0  0  0  0  0  0
   71.2031   -4.0440    2.1135 C   0  0  0  0  0  0  0  0  0  0  0  0
   70.0226    0.8231   -2.1050 C   0  0  0  0  0  0  0  0  0  0  0  0
   72.0076   -1.0523    0.6128 N   0  0  0  0  0  0  0  0  0  0  0  0
   68.6604    2.2930   -5.9991 N   0  0  0  0  0  0  0  0  0  0  0  0
   73.2706   -4.3772    0.7532 N   0  0  0  0  0  0  0  0  0  0  0  0
   71.2914   -2.8076   -0.7126 O   0  0  0  0  0  0  0  0  0  0  0  0
   67.0137    2.0060   -7.6721 O   0  0  0  0  0  0  0  0  0  0  0  0
   72.7356   -0.3062   -1.6910 O   0  0  0  0  0  0  0  0  0  0  0  0
   72.7400    1.2828    0.2595 O   0  0  0  0  0  0  0  0  0  0  0  0
   70.9150   -3.3767    3.7858 S   0  0  0  0  0  0  0  0  0  0  0  0
   72.1389    0.1847   -0.4695 S   0  0  0  0  0  6  0  0  0  0  0  0
  2  3  4  0
  3  4  4  0
  7  8  4  0
  6  9  4  0
  8 10  4  0
  9 10  4  0
  1 11  1  0
  2 12  4  0
  5 12  4  0
  7 12  1  0
 11 14  1  0
  7 15  4  0
  6 15  4  0
  1 16  1  0
  4 17  4  0
  5 17  4  0
 11 18  1  6
  1 19  2  0
 13 20  1  0
  4 20  1  0
 14 23  1  0
 21 24  2  0
  6 24  1  0
 22 24  2  0
 16 24  1  0
M  END
