8CNH_V6U_A_501
     RDKit          3D

 41 43  0  0  0  0  0  0  0  0999 V2000
  -31.1316   -1.0055    2.2199 C   0  0  0  0  0  0  0  0  0  0  0  0
  -30.6302    0.2286    2.8873 C   0  0  0  0  0  0  0  0  0  0  0  0
  -31.5690    1.0223    3.7203 C   0  0  0  0  0  0  0  0  0  0  0  0
  -32.9939    0.5803    3.8232 C   0  0  0  0  0  0  0  0  0  0  0  0
  -33.4702   -0.6391    3.1411 C   0  0  0  0  0  0  0  0  0  0  0  0
  -32.5570   -1.4483    2.3391 C   0  0  0  0  0  0  0  0  0  0  0  0
  -27.8155   -1.3188   -1.6372 C   0  0  0  0  0  0  0  0  0  0  0  0
  -28.9945    5.1425    0.9349 C   0  0  0  0  0  0  0  0  0  0  0  0
  -29.1940    3.7768    0.7893 C   0  0  0  0  0  0  0  0  0  0  0  0
  -28.0340    2.9582    0.7566 C   0  0  0  0  0  0  0  0  0  0  0  0
  -26.6571    4.9595    1.0434 C   0  0  0  0  0  0  0  0  0  0  0  0
  -28.1955    1.4866    0.5075 C   0  0  0  0  0  0  0  0  0  0  0  0
  -28.6468    0.4885    1.3721 C   0  0  0  0  0  0  0  0  0  0  0  0
  -28.5883   -0.6683    0.6626 C   0  0  0  0  0  0  0  0  0  0  0  0
  -29.1847    0.6477    2.8137 C   0  0  0  0  0  0  0  0  0  0  0  0
  -30.2811   -1.8359    1.3257 C   0  0  0  0  0  0  0  0  0  0  0  0
  -28.4117   -1.3113    2.7143 C   0  0  0  0  0  0  0  0  0  0  0  0
  -27.7960    5.7714    1.1023 N   0  0  0  0  0  0  0  0  0  0  0  0
  -26.7874    3.5577    0.8639 N   0  0  0  0  0  0  0  0  0  0  0  0
  -28.1057   -0.3721   -0.5650 N   0  0  0  0  0  4  0  0  0  0  0  0
  -27.8373    0.9681   -0.6434 N   0  0  0  0  0  0  0  0  0  0  0  0
  -25.4160    5.6150    1.1505 N   0  0  0  0  0  0  0  0  0  0  0  0
  -29.0222   -2.2271    1.8385 O   0  0  0  0  0  0  0  0  0  0  0  0
  -30.6872   -2.1608    0.3045 O   0  0  0  0  0  0  0  0  0  0  0  0
  -30.4370    6.1186    1.0759 Cl  0  0  0  0  0  0  0  0  0  0  0  0
  -31.2436    1.8647    4.2197 H   0  0  0  0  0  0  0  0  0  0  0  0
  -33.6576    1.1388    4.3823 H   0  0  0  0  0  0  0  0  0  0  0  0
  -34.4584   -0.9225    3.2320 H   0  0  0  0  0  0  0  0  0  0  0  0
  -32.8859   -2.3044    1.8660 H   0  0  0  0  0  0  0  0  0  0  0  0
  -28.1156   -2.3010   -1.3367 H   0  0  0  0  0  0  0  0  0  0  0  0
  -28.3527   -1.0356   -2.5181 H   0  0  0  0  0  0  0  0  0  0  0  0
  -26.7654   -1.3140   -1.8428 H   0  0  0  0  0  0  0  0  0  0  0  0
  -30.1411    3.3749    0.7086 H   0  0  0  0  0  0  0  0  0  0  0  0
  -28.8626   -1.6043    0.9999 H   0  0  0  0  0  0  0  0  0  0  0  0
  -28.6067    0.0361    3.4746 H   0  0  0  0  0  0  0  0  0  0  0  0
  -29.1075    1.6758    3.1002 H   0  0  0  0  0  0  0  0  0  0  0  0
  -27.4711   -1.7030    3.0411 H   0  0  0  0  0  0  0  0  0  0  0  0
  -28.2543   -0.3827    2.2065 H   0  0  0  0  0  0  0  0  0  0  0  0
  -29.0453   -1.1515    3.5616 H   0  0  0  0  0  0  0  0  0  0  0  0
  -25.3839    6.5911    1.2744 H   0  0  0  0  0  0  0  0  0  0  0  0
  -24.5801    5.0973    1.1016 H   0  0  0  0  0  0  0  0  0  0  0  0
  1  2  4  0
  2  3  4  0
  3  4  4  0
  4  5  4  0
  1  6  4  0
  5  6  4  0
  8  9  4  0
  9 10  4  0
 10 12  1  0
 12 13  4  0
 13 14  4  0
 13 15  1  0
  2 15  1  0
  1 16  1  0
 11 18  4  0
  8 18  4  0
 11 19  4  0
 10 19  4  0
 14 20  4  0
  7 20  1  0
 12 21  4  0
 20 21  4  0
 11 22  1  0
 17 23  1  0
 16 23  1  0
 16 24  2  0
  8 25  1  0
  3 26  1  0
  4 27  1  0
  5 28  1  0
  6 29  1  0
  7 30  1  0
  7 31  1  0
  7 32  1  0
  9 33  1  0
 14 34  1  0
 15 35  1  0
 15 36  1  0
 17 37  1  0
 17 38  1  0
 17 39  1  0
 22 40  1  0
 22 41  1  0
M  CHG  1  20   1
M  END
