1LRH_NLA_D_8190
     RDKit          3D

 14 15  0  0  0  0  0  0  0  0999 V2000
   19.7172   54.5141   81.4936 C   0  0  0  0  0  0  0  0  0  0  0  0
   20.2027   54.7505   82.7471 C   0  0  0  0  0  0  0  0  0  0  0  0
   20.8584   53.7087   83.3893 C   0  0  0  0  0  0  0  0  0  0  0  0
   21.0532   52.4634   82.8512 C   0  0  0  0  0  0  0  0  0  0  0  0
   20.5542   52.2506   81.5808 C   0  0  0  0  0  0  0  0  0  0  0  0
   19.8995   53.2556   80.9196 C   0  0  0  0  0  0  0  0  0  0  0  0
   19.3884   53.0042   79.6352 C   0  0  0  0  0  0  0  0  0  0  0  0
   18.7090   53.9932   78.9471 C   0  0  0  0  0  0  0  0  0  0  0  0
   18.5409   55.2306   79.5453 C   0  0  0  0  0  0  0  0  0  0  0  0
   19.0389   55.5072   80.8184 C   0  0  0  0  0  0  0  0  0  0  0  0
   20.1649   56.0317   83.4702 C   0  0  0  0  0  0  0  0  0  0  0  0
   18.7819   56.1073   84.0838 C   0  0  0  0  0  0  0  0  0  0  0  0
   17.9912   55.1363   84.0731 O   0  0  0  0  0  0  0  0  0  0  0  0
   18.4707   57.3492   84.6649 O   0  0  0  0  0  0  0  0  0  0  0  0
  1  2  2  0
  2  3  1  0
  3  4  2  0
  4  5  1  0
  1  6  1  0
  5  6  2  0
  6  7  1  0
  7  8  2  0
  8  9  1  0
  1 10  1  0
  9 10  2  0
  2 11  1  0
 11 12  1  1
 12 13  2  0
 12 14  1  0
M  END
$$$$
