7NF3_4LU_A_603
     RDKit          3D

 66 69  0  0  0  0  0  0  0  0999 V2000
   18.2580   10.0462   23.0456 C   0  0  0  0  0  0  0  0  0  0  0  0
   17.5480    8.8535   23.1150 C   0  0  0  0  0  0  0  0  0  0  0  0
   17.0305    8.4206   24.3560 C   0  0  0  0  0  0  0  0  0  0  0  0
   19.5215   12.8133   25.3251 C   0  0  0  0  0  0  0  0  0  0  0  0
   16.9604    9.3553   25.4452 C   0  0  0  0  0  0  0  0  0  0  0  0
   19.4603   14.7794   27.2468 N   0  0  0  0  0  0  0  0  0  0  0  0
   20.5033   14.7023   26.3883 C   0  0  0  0  0  0  0  0  0  0  0  0
   17.2446    8.3210   27.7443 C   0  0  2  0  0  0  0  0  0  0  0  0
   16.2597    9.0440   26.7956 C   0  0  1  0  0  0  0  0  0  0  0  0
   16.9548   11.3417   27.4769 C   0  0  0  0  0  0  0  0  0  0  0  0
   21.4393   15.5443   26.4587 O   0  0  0  0  0  0  0  0  0  0  0  0
   20.5248   13.7411   25.4309 N   0  0  0  0  0  0  0  0  0  0  0  0
   18.4692   13.8522   27.2263 C   0  0  0  0  0  0  0  0  0  0  0  0
   17.4673   14.0325   27.9687 O   0  0  0  0  0  0  0  0  0  0  0  0
   18.5513   12.7402   26.3413 C   0  0  0  0  0  0  0  0  0  0  0  0
   17.6685   11.5810   26.4086 N   0  0  0  0  0  4  0  0  0  0  0  0
   15.8315   10.3719   27.4458 C   0  0  2  0  0  0  0  0  0  0  0  0
   14.9513    8.2166   26.6610 C   0  0  1  0  0  0  0  0  0  0  0  0
   17.6636   10.6085   25.3223 C   0  0  0  0  0  0  0  0  0  0  0  0
   16.5712    6.9801   24.4698 C   0  0  2  0  0  0  0  0  0  0  0  0
   17.4568    8.0139   21.8606 C   0  0  1  0  0  0  0  0  0  0  0  0
   18.4272   10.8758   24.1640 C   0  0  0  0  0  0  0  0  0  0  0  0
   19.3902   11.9710   24.1493 N   0  0  0  0  0  0  0  0  0  0  0  0
   20.1933   12.2518   22.9338 C   0  0  1  0  0  0  0  0  0  0  0  0
   21.1158   11.0553   22.5844 C   0  0  2  0  0  0  0  0  0  0  0  0
   22.2435   11.0608   23.4250 O   0  0  0  0  0  0  0  0  0  0  0  0
   21.5603   11.0100   21.0896 C   0  0  2  0  0  0  0  0  0  0  0  0
   22.8654   11.5198   20.9691 O   0  0  0  0  0  0  0  0  0  0  0  0
   20.6216   11.7361   20.0838 C   0  0  2  0  0  0  0  0  0  0  0  0
   21.0552   13.0548   19.8763 O   0  0  0  0  0  0  0  0  0  0  0  0
   19.1361   11.7271   20.4912 C   0  0  1  0  0  0  0  0  0  0  0  0
   18.4501   10.7067   19.8028 O   0  0  0  0  0  0  0  0  0  0  0  0
   17.1606   10.1676   20.7799 P   0  0  1  0  0  5  0  0  0  0  0  0
   17.3009   10.7479   22.1698 O   0  0  0  0  0  0  0  0  0  0  0  0
   15.6773   10.6424   20.1157 O   0  0  0  0  0  0  0  0  0  0  0  0
   17.2087    8.4789   20.8742 O   0  0  0  0  0  0  0  0  0  0  0  0
   18.7078   10.2902   22.1007 H   0  0  0  0  0  0  0  0  0  0  0  0
   19.4158   15.5689   27.9320 H   0  0  0  0  0  0  0  0  0  0  0  0
   17.4259    7.2740   27.4353 H   0  0  0  0  0  0  0  0  0  0  0  0
   16.8459    8.3039   28.7818 H   0  0  0  0  0  0  0  0  0  0  0  0
   18.2297    8.8351   27.7588 H   0  0  0  0  0  0  0  0  0  0  0  0
   17.1383   11.8334   28.4192 H   0  0  0  0  0  0  0  0  0  0  0  0
   21.3418   13.7425   24.7872 H   0  0  0  0  0  0  0  0  0  0  0  0
   15.4560   10.2128   28.4815 H   0  0  0  0  0  0  0  0  0  0  0  0
   15.0082   10.8344   26.8562 H   0  0  0  0  0  0  0  0  0  0  0  0
   15.1363    7.1438   26.4653 H   0  0  0  0  0  0  0  0  0  0  0  0
   14.3706    8.2205   27.6097 H   0  0  0  0  0  0  0  0  0  0  0  0
   14.2972    8.6426   25.8703 H   0  0  0  0  0  0  0  0  0  0  0  0
   15.6142    6.9232   25.0281 H   0  0  0  0  0  0  0  0  0  0  0  0
   17.3448    6.3416   24.9261 H   0  0  0  0  0  0  0  0  0  0  0  0
   16.4140    6.5111   23.4777 H   0  0  0  0  0  0  0  0  0  0  0  0
   16.7969    7.1358   22.0251 H   0  0  0  0  0  0  0  0  0  0  0  0
   17.0199    8.5898   21.0165 H   0  0  0  0  0  0  0  0  0  0  0  0
   18.4702    7.6728   21.5611 H   0  0  0  0  0  0  0  0  0  0  0  0
   19.5216   12.5097   22.0963 H   0  0  0  0  0  0  0  0  0  0  0  0
   20.7811   13.1836   23.0328 H   0  0  0  0  0  0  0  0  0  0  0  0
   20.5766   10.1184   22.8173 H   0  0  0  0  0  0  0  0  0  0  0  0
   22.7780   11.8697   23.2134 H   0  0  0  0  0  0  0  0  0  0  0  0
   21.5756    9.9327   20.7978 H   0  0  0  0  0  0  0  0  0  0  0  0
   23.2833   11.0713   20.1875 H   0  0  0  0  0  0  0  0  0  0  0  0
   20.6990   11.1787   19.1203 H   0  0  0  0  0  0  0  0  0  0  0  0
   21.0913   13.1974   18.8944 H   0  0  0  0  0  0  0  0  0  0  0  0
   19.0621   11.6156   21.5931 H   0  0  0  0  0  0  0  0  0  0  0  0
   18.6968   12.7133   20.2209 H   0  0  0  0  0  0  0  0  0  0  0  0
   15.1088   10.8602   20.8969 H   0  0  0  0  0  0  0  0  0  0  0  0
   16.7870    8.2629   21.7446 H   0  0  0  0  0  0  0  0  0  0  0  0
  1  2  2  0
  2  3  1  0
  3  5  2  0
  6  7  1  0
  8  9  1  0
  9  5  1  6
  7 11  2  0
  4 12  1  0
  7 12  1  0
  6 13  1  0
 13 14  2  0
  4 15  2  0
 13 15  1  0
 10 16  2  0
 15 16  1  0
  9 17  1  0
 10 17  1  0
  9 18  1  0
  5 19  1  0
 16 19  1  0
  3 20  1  0
  2 21  1  0
  1 22  1  0
 19 22  2  0
 22 23  1  0
  4 23  1  0
 23 24  1  0
 24 25  1  0
 25 26  1  0
 25 27  1  0
 27 28  1  0
 27 29  1  0
 29 30  1  0
 29 31  1  0
 31 32  1  0
 33 32  1  6
 33 34  2  0
 33 35  1  0
 33 36  1  0
  1 37  1  0
  6 38  1  0
  8 39  1  6
  8 40  1  0
  8 41  1  0
 10 42  1  0
 12 43  1  0
 17 44  1  1
 17 45  1  0
 18 46  1  6
 18 47  1  0
 18 48  1  0
 20 49  1  1
 20 50  1  0
 20 51  1  0
 21 52  1  1
 21 53  1  0
 21 54  1  0
 24 55  1  6
 24 56  1  0
 25 57  1  1
 26 58  1  0
 27 59  1  6
 28 60  1  0
 29 61  1  6
 30 62  1  0
 31 63  1  1
 31 64  1  0
 35 65  1  0
 36 66  1  0
M  CHG  1  16   1
M  END
