7TSF_H4B_A_802
     RDKit          3D

 17 18  0  0  0  0  0  0  0  0999 V2000
   14.4836    3.6685   43.2676 N   0  0  0  0  0  0  0  0  0  0  0  0
   13.2777    3.5795   42.6653 C   0  0  0  0  0  0  0  0  0  0  0  0
   13.2206    3.1219   41.3922 N   0  0  0  0  0  0  0  0  0  0  0  0
   12.1473    3.9207   43.3282 N   0  0  0  0  0  0  0  0  0  0  0  0
   12.2003    4.3729   44.6043 C   0  0  0  0  0  0  0  0  0  0  0  0
   11.1563    4.6921   45.2304 O   0  0  0  0  0  0  0  0  0  0  0  0
   13.4340    4.4817   45.2194 C   0  0  0  0  0  0  0  0  0  0  0  0
   14.5785    4.1145   44.5303 C   0  0  0  0  0  0  0  0  0  0  0  0
   13.5403    4.9271   46.4890 N   0  0  0  0  0  0  0  0  0  0  0  0
   15.8089    4.1994   45.1093 N   0  0  0  0  0  0  0  0  0  0  0  0
   14.8308    5.4920   46.8721 C   0  0  2  0  0  0  0  0  0  0  0  0
   15.9860    4.5748   46.5019 C   0  0  0  0  0  0  0  0  0  0  0  0
   14.8847    5.8048   48.3578 C   0  0  1  0  0  0  0  0  0  0  0  0
   14.8439    4.5853   49.1031 O   0  0  0  0  0  0  0  0  0  0  0  0
   16.1390    6.5977   48.7093 C   0  0  2  0  0  0  0  0  0  0  0  0
   16.3936    6.4450   50.1997 C   0  0  0  0  0  0  0  0  0  0  0  0
   15.9393    7.9875   48.3810 O   0  0  0  0  0  0  0  0  0  0  0  0
  1  2  2  0
  2  3  1  0
  2  4  1  0
  4  5  1  0
  5  6  2  0
  5  7  1  0
  1  8  1  0
  7  8  2  0
  7  9  1  0
  8 10  1  0
  9 11  1  0
 10 12  1  0
 11 12  1  1
 11 13  1  0
 13 14  1  1
 13 15  1  0
 15 16  1  1
 15 17  1  0
M  END
