@<TRIPOS>MOLECULE
1HQ2_PH2_A_181
 23 24 0 0 0
SMALL
GASTEIGER

@<TRIPOS>ATOM
      1 N          -0.5800    1.3499   -0.3788 N.2     1  UNL1       -0.2438
      2 CA         -1.3247    0.9800   -1.3812 C.2     1  UNL1        0.0620
      3 C          -1.5188   -0.4822   -1.7408 C.3     1  UNL1        0.0512
      4 N          -0.6688   -1.3866   -0.9612 N.pl3   1  UNL1       -0.3218
      5 N           0.8076   -1.8113    0.9109 N.ar    1  UNL1       -0.1991
      6 C           1.5521   -1.3818    1.9652 C.ar    1  UNL1        0.1948
      7 N           2.2773   -2.3274    2.7512 N.pl3   1  UNL1       -0.3289
      8 N           1.6034   -0.0525    2.2658 N.ar    1  UNL1       -0.2935
      9 C           0.9169    0.8581    1.5211 C.ar    1  UNL1        0.2800
     10 O           0.9779    2.0835    1.8103 O.2     1  UNL1       -0.2654
     11 C           0.1472    0.4271    0.4372 C.ar    1  UNL1        0.1677
     12 C           0.1073   -0.9325    0.1481 C.ar    1  UNL1        0.1535
     13 C          -2.0553    2.0308   -2.1643 C.3     1  UNL1        0.0838
     14 O          -1.1424    2.8496   -2.8432 O.3     1  UNL1       -0.3892
     15 H          -2.5819   -0.7546   -1.5709 H       1  UNL1        0.0524
     16 H          -1.2918   -0.6206   -2.8191 H       1  UNL1        0.0524
     17 H          -0.6899   -2.4073   -1.1833 H       1  UNL1        0.1479
     18 H           2.8541   -2.0155    3.5637 H       1  UNL1        0.1451
     19 H           2.2379   -3.3449    2.5203 H       1  UNL1        0.1451
     20 H           2.1775    0.2735    3.0764 H       1  UNL1        0.1716
     21 H1         -2.7245    1.5552   -2.9125 H       1  UNL1        0.0620
     22 H2         -2.6951    2.6345   -1.4811 H       1  UNL1        0.0620
     23 H          -0.7966    3.5035   -2.1806 H       1  UNL1        0.2099
@<TRIPOS>BOND
     1     1     2    2
     2     2     3    1
     3     3     4    1
     4     5     6   ar
     5     6     7    1
     6     6     8   ar
     7     8     9   ar
     8     9    10    2
     9     1    11    1
    10     9    11   ar
    11     4    12    1
    12     5    12   ar
    13    11    12   ar
    14     2    13    1
    15    13    14    1
    16     3    15    1
    17     3    16    1
    18     4    17    1
    19     7    18    1
    20     7    19    1
    21     8    20    1
    22    13    21    1
    23    13    22    1
    24    14    23    1
