@<TRIPOS>MOLECULE
1HQ2_PH2_A_181
 23 24 0 0 0
SMALL
GASTEIGER

@<TRIPOS>ATOM
      1 N          -7.6100    6.9510   18.0030 N.2     1  UNL1       -0.2438
      2 CA         -7.4910    7.1060   19.2760 C.2     1  UNL1        0.0620
      3 C          -8.3500    8.3090   19.9180 C.3     1  UNL1        0.0512
      4 N          -9.1070    9.0370   19.0730 N.pl3   1  UNL1       -0.3218
      5 N          -9.9130    9.5310   16.9810 N.ar    1  UNL1       -0.1991
      6 C         -10.0420    9.3670   15.6090 C.ar    1  UNL1        0.1948
      7 N         -10.7600   10.0850   14.9250 N.pl3   1  UNL1       -0.3289
      8 N          -9.2940    8.3350   15.1160 N.ar    1  UNL1       -0.2935
      9 C          -8.5060    7.5200   15.7530 C.ar    1  UNL1        0.2800
     10 O          -7.8600    6.6070   15.2360 O.2     1  UNL1       -0.2654
     11 C          -8.4450    7.7730   17.1430 C.ar    1  UNL1        0.1677
     12 C          -9.1830    8.8080   17.7070 C.ar    1  UNL1        0.1535
     13 C          -6.6900    6.3440   20.2100 C.3     1  UNL1        0.0838
     14 O          -5.7980    5.4760   19.5280 O.3     1  UNL1       -0.3892
     15 H          -7.6638    8.9775   20.3947 H       1  UNL1        0.0524
     16 H          -9.0463    7.8336   20.5768 H       1  UNL1        0.0524
     17 H          -9.6382    9.7761   19.4481 H       1  UNL1        0.1479
     18 H         -11.2730   10.8123   15.3459 H       1  UNL1        0.1451
     19 H         -10.8244    9.9351   13.9541 H       1  UNL1        0.1451
     20 H          -9.3610    8.1884   14.1448 H       1  UNL1        0.1716
     21 H1         -7.3374    5.7616   20.8317 H       1  UNL1        0.0620
     22 H2         -6.1153    7.0264   20.8007 H       1  UNL1        0.0620
     23 H          -6.3055    4.8506   18.9874 H       1  UNL1        0.2099
@<TRIPOS>BOND
     1     1     2    2
     2     2     3    1
     3     3     4    1
     4     5     6   ar
     5     6     7    1
     6     6     8   ar
     7     8     9   ar
     8     9    10    2
     9     1    11    1
    10     9    11   ar
    11     4    12    1
    12     5    12   ar
    13    11    12   ar
    14     2    13    1
    15    13    14    1
    16     3    15    1
    17     3    16    1
    18     4    17    1
    19     7    18    1
    20     7    19    1
    21     8    20    1
    22    13    21    1
    23    13    22    1
    24    14    23    1
