
     RDKit          3D

 12 12  0  0  0  0  0  0  0  0999 V2000
   17.0610   55.0320   14.0483 O   0  0  0  0  0  0  0  0  0  0  0  0
   17.4208   53.7037   14.4870 S   0  0  0  0  0  6  0  0  0  0  0  0
   16.4396   52.7492   14.9482 O   0  0  0  0  0  0  0  0  0  0  0  0
   18.4913   53.9154   15.7632 N   0  0  0  0  0  0  0  0  0  0  0  0
   18.4496   52.9429   13.2676 C   0  0  0  0  0  0  0  0  0  0  0  0
   18.7923   53.6511   12.1134 C   0  0  0  0  0  0  0  0  0  0  0  0
   19.5827   53.0383   11.1395 C   0  0  0  0  0  0  0  0  0  0  0  0
   18.8707   51.6230   13.4448 C   0  0  0  0  0  0  0  0  0  0  0  0
   19.6608   51.0158   12.4672 C   0  0  0  0  0  0  0  0  0  0  0  0
   20.0291   51.7198   11.3113 C   0  0  0  0  0  0  0  0  0  0  0  0
   20.8666   51.0542   10.2481 C   0  0  0  0  0  0  0  0  0  0  0  0
   22.1806   51.7862   10.0227 C   0  0  0  0  0  0  0  0  0  0  0  0
  1  2  2  0
  2  3  2  0
  2  4  1  0
  2  5  1  0
  5  6  4  0
  6  7  4  0
  5  8  4  0
  8  9  4  0
  7 10  4  0
  9 10  4  0
 10 11  1  0
 11 12  1  0
M  END
