7SIU_9ID_A_901
     RDKit          3D

 54 57  0  0  0  0  0  0  0  0999 V2000
  -36.0328    2.7495   10.5549 N   0  0  0  0  0  0  0  0  0  0  0  0
  -34.9646    1.5039    7.2266 N   0  0  0  0  0  0  0  0  0  0  0  0
  -36.3799    3.3877    6.9494 C   0  0  0  0  0  0  0  0  0  0  0  0
  -35.5677    2.3910    6.3874 C   0  0  0  0  0  0  0  0  0  0  0  0
  -35.1095    1.5484    8.5785 C   0  0  0  0  0  0  0  0  0  0  0  0
  -34.4601    0.4903    9.3894 C   0  0  0  0  0  0  0  0  0  0  0  0
  -35.3660    2.2728    4.9130 C   0  0  0  0  0  0  0  0  0  0  0  0
  -34.7737    0.8640    2.9149 C   0  0  1  0  0  0  0  0  0  0  0  0
  -35.6391    3.4727    4.0202 C   0  0  2  0  0  0  0  0  0  0  0  0
  -34.8438    5.1887   -0.5413 C   0  0  0  0  0  0  0  0  0  0  0  0
  -35.5223    4.0506   -2.5866 C   0  0  0  0  0  0  0  0  0  0  0  0
  -34.2738    6.2206   -1.3194 C   0  0  0  0  0  0  0  0  0  0  0  0
  -37.3293    3.7379   12.4589 C   0  0  0  0  0  0  0  0  0  0  0  0
  -33.9802    6.0192    1.5048 O   0  0  0  0  0  0  0  0  0  0  0  0
  -34.7897    5.2356    0.9384 C   0  0  0  0  0  0  0  0  0  0  0  0
  -34.3360    6.1660   -2.7150 C   0  0  0  0  0  0  0  0  0  0  0  0
  -34.9612    5.0811   -3.3485 C   0  0  0  0  0  0  0  0  0  0  0  0
  -35.4596    4.0986   -1.1907 C   0  0  0  0  0  0  0  0  0  0  0  0
  -35.6218    4.3775    1.7338 N   0  0  0  0  0  0  0  0  0  0  0  0
  -35.0692    3.3291    2.5976 C   0  0  2  0  0  0  0  0  0  0  0  0
  -35.4141    1.9433    2.0429 C   0  0  2  0  0  0  0  0  0  0  0  0
  -35.0453    1.0740    4.3801 C   0  0  0  0  0  0  0  0  0  0  0  0
  -36.5237    3.4523    8.2973 N   0  0  0  0  0  0  0  0  0  0  0  0
  -33.6235   -0.4883    8.7657 N   0  0  0  0  0  0  0  0  0  0  0  0
  -34.6807    0.4035   10.6279 O   0  0  0  0  0  0  0  0  0  0  0  0
  -35.9149    2.5691    9.1349 C   0  0  0  0  0  0  0  0  0  0  0  0
  -36.8910    3.7343   11.1521 C   0  0  0  0  0  0  0  0  0  0  0  0
  -37.5058    4.8052   10.5397 C   0  0  0  0  0  0  0  0  0  0  0  0
  -38.1602    4.7882   12.6329 N   0  0  0  0  0  0  0  0  0  0  0  0
  -38.2453    5.4294   11.4756 N   0  0  0  0  0  0  0  0  0  0  0  0
  -39.1001    6.5844   11.2514 C   0  0  1  0  0  0  0  0  0  0  0  0
  -35.3964    2.2093   11.1860 H   0  0  0  0  0  0  0  0  0  0  0  0
  -36.8993    4.1097    6.3341 H   0  0  0  0  0  0  0  0  0  0  0  0
  -35.1635   -0.1305    2.6100 H   0  0  0  0  0  0  0  0  0  0  0  0
  -33.6732    0.8654    2.7572 H   0  0  0  0  0  0  0  0  0  0  0  0
  -35.2016    4.3848    4.4836 H   0  0  0  0  0  0  0  0  0  0  0  0
  -36.7423    3.6113    3.9560 H   0  0  0  0  0  0  0  0  0  0  0  0
  -36.0060    3.2099   -3.0788 H   0  0  0  0  0  0  0  0  0  0  0  0
  -33.7566    7.0517   -0.8570 H   0  0  0  0  0  0  0  0  0  0  0  0
  -37.0699    3.0280   13.2319 H   0  0  0  0  0  0  0  0  0  0  0  0
  -33.8915    6.9589   -3.3072 H   0  0  0  0  0  0  0  0  0  0  0  0
  -35.0099    5.0429   -4.4292 H   0  0  0  0  0  0  0  0  0  0  0  0
  -35.9063    3.2922   -0.6192 H   0  0  0  0  0  0  0  0  0  0  0  0
  -36.6554    4.4783    1.6638 H   0  0  0  0  0  0  0  0  0  0  0  0
  -33.9595    3.4248    2.6275 H   0  0  0  0  0  0  0  0  0  0  0  0
  -36.5180    1.8036    2.0241 H   0  0  0  0  0  0  0  0  0  0  0  0
  -35.0313    1.8469    1.0028 H   0  0  0  0  0  0  0  0  0  0  0  0
  -34.8905    0.2160    5.0232 H   0  0  0  0  0  0  0  0  0  0  0  0
  -33.3793   -0.4281    7.7515 H   0  0  0  0  0  0  0  0  0  0  0  0
  -33.2482   -1.2909    9.3211 H   0  0  0  0  0  0  0  0  0  0  0  0
  -37.4368    5.0984    9.5012 H   0  0  0  0  0  0  0  0  0  0  0  0
  -39.1861    7.1847   12.1837 H   0  0  0  0  0  0  0  0  0  0  0  0
  -38.6665    7.2269   10.4546 H   0  0  0  0  0  0  0  0  0  0  0  0
  -40.1103    6.2459   10.9456 H   0  0  0  0  0  0  0  0  0  0  0  0
  3  4  1  0
  2  4  2  0
  2  5  1  0
  5  6  1  0
  4  7  1  0
  7  9  1  0
 10 12  1  0
 14 15  2  0
 10 15  1  0
 12 16  2  0
 16 17  1  0
 11 17  2  0
 10 18  2  0
 11 18  1  0
 15 19  1  0
 20 19  1  0
  9 20  1  0
  8 21  1  0
 20 21  1  0
  8 22  1  0
  7 22  2  0
  3 23  2  0
  6 24  1  0
  6 25  2  0
 23 26  1  0
  5 26  2  0
  1 26  1  0
  1 27  1  0
 13 27  1  0
 27 28  2  0
 13 29  2  0
 28 30  1  0
 29 30  1  0
 30 31  1  0
  1 32  1  0
  3 33  1  0
  8 34  1  6
  8 35  1  0
  9 36  1  1
  9 37  1  0
 11 38  1  0
 12 39  1  0
 13 40  1  0
 16 41  1  0
 17 42  1  0
 18 43  1  0
 19 44  1  0
 20 45  1  1
 21 46  1  6
 21 47  1  0
 22 48  1  0
 24 49  1  0
 24 50  1  0
 28 51  1  0
 31 52  1  1
 31 53  1  0
 31 54  1  0
M  END
