@<TRIPOS>MOLECULE
1UNL_RRC_A_1293
 52 54 0 0 0
SMALL
GASTEIGER

@<TRIPOS>ATOM
      1 O          -3.3405    2.7509    0.1620 O.3     1  UNL1       -0.3932
      2 C          -2.5029    2.6110    1.2795 C.3     1  UNL1        0.0626
      3 CA         -2.6385    1.2097    1.8999 C.3     1  UNL1        0.0461
      4 C          -4.0432    1.0029    2.5039 C.3     1  UNL1       -0.0352
      5 C          -4.1300   -0.2896    3.3146 C.3     1  UNL1       -0.0635
      6 N          -2.3480    0.1839    0.8903 N.pl3   1  UNL1       -0.3083
      7 C          -1.0127   -0.1514    0.4922 C.ar    1  UNL1        0.2191
      8 N           0.0615    0.4652    1.0760 N.ar    1  UNL1       -0.1947
      9 C           1.3026    0.1137    0.6641 C.ar    1  UNL1        0.1674
     10 N           2.4748    0.5906    1.1005 N.ar    1  UNL1       -0.3123
     11 C           2.7085    1.6048    2.1343 C.3     1  UNL1        0.0317
     12 C           3.4538    2.8053    1.5447 C.3     1  UNL1       -0.0444
     13 C           3.4795    0.9981    3.3095 C.3     1  UNL1       -0.0444
     14 C           3.3930   -0.0952    0.3679 C.ar    1  UNL1        0.0985
     15 C           1.5171   -0.8176   -0.2920 C.ar    1  UNL1        0.1476
     16 N           2.8365   -0.9778   -0.5071 N.ar    1  UNL1       -0.2306
     17 N          -0.8152   -1.1007   -0.4799 N.ar    1  UNL1       -0.1974
     18 C           0.4392   -1.4566   -0.8946 C.ar    1  UNL1        0.1519
     19 N           0.6293   -2.4511   -1.9099 N.pl3   1  UNL1       -0.3231
     20 C          -0.5065   -3.1276   -2.5347 C.3     1  UNL1        0.0357
     21 C          -0.0325   -4.1231   -3.5586 C.ar    1  UNL1       -0.0304
     22 C           0.1594   -3.7299   -4.8935 C.ar    1  UNL1       -0.0571
     23 C           0.6362   -4.6470   -5.8356 C.ar    1  UNL1       -0.0615
     24 C           0.9354   -5.9566   -5.4495 C.ar    1  UNL1       -0.0617
     25 C           0.7626   -6.3502   -4.1195 C.ar    1  UNL1       -0.0615
     26 C           0.2856   -5.4363   -3.1744 C.ar    1  UNL1       -0.0571
     27 H          -4.2170    3.0742    0.4974 H       1  UNL1        0.2095
     28 H1         -2.7203    3.3949    2.0419 H       1  UNL1        0.0575
     29 H2         -1.4536    2.7666    0.9512 H       1  UNL1        0.0575
     30 HA         -1.8996    1.1306    2.7288 H       1  UNL1        0.0521
     31 H          -4.2857    1.8519    3.1799 H       1  UNL1        0.0281
     32 H          -4.8091    0.9770    1.6985 H       1  UNL1        0.0281
     33 H          -5.1465   -0.3855    3.7510 H       1  UNL1        0.0230
     34 H          -3.9408   -1.1717    2.6674 H       1  UNL1        0.0230
     35 H          -3.3895   -0.2770    4.1424 H       1  UNL1        0.0230
     36 H          -3.1381   -0.3207    0.4269 H       1  UNL1        0.1493
     37 H           1.7315    1.9702    2.5218 H       1  UNL1        0.0523
     38 H           3.5687    3.5989    2.3135 H       1  UNL1        0.0249
     39 H           4.4613    2.5067    1.1844 H       1  UNL1        0.0249
     40 H           2.8776    3.2236    0.6922 H       1  UNL1        0.0249
     41 H           3.5947    1.7492    4.1197 H       1  UNL1        0.0249
     42 H           2.9217    0.1274    3.7151 H       1  UNL1        0.0249
     43 H           4.4874    0.6599    2.9874 H       1  UNL1        0.0249
     44 H           4.4621    0.0411    0.4671 H       1  UNL1        0.1029
     45 H           1.6036   -2.6946   -2.2027 H       1  UNL1        0.1479
     46 H          -1.1664   -2.3736   -3.0167 H       1  UNL1        0.0511
     47 H          -1.1037   -3.6461   -1.7531 H       1  UNL1        0.0511
     48 H          -0.0589   -2.7154   -5.2033 H       1  UNL1        0.0621
     49 H           0.7775   -4.3412   -6.8642 H       1  UNL1        0.0618
     50 H           1.3058   -6.6646   -6.1795 H       1  UNL1        0.0618
     51 H           1.0018   -7.3624   -3.8200 H       1  UNL1        0.0618
     52 H           0.1656   -5.7507   -2.1450 H       1  UNL1        0.0621
@<TRIPOS>BOND
     1     1     2    1
     2     3     2    1
     3     3     4    1
     4     4     5    1
     5     3     6    1
     6     6     7    1
     7     7     8   ar
     8     8     9   ar
     9     9    10   ar
    10    10    11    1
    11    11    12    1
    12    11    13    1
    13    10    14   ar
    14     9    15   ar
    15    14    16   ar
    16    15    16   ar
    17     7    17   ar
    18    15    18   ar
    19    17    18   ar
    20    18    19    1
    21    19    20    1
    22    20    21    1
    23    21    22   ar
    24    22    23   ar
    25    23    24   ar
    26    24    25   ar
    27    21    26   ar
    28    25    26   ar
    29     1    27    1
    30     2    28    1
    31     2    29    1
    32     3    30    1
    33     4    31    1
    34     4    32    1
    35     5    33    1
    36     5    34    1
    37     5    35    1
    38     6    36    1
    39    11    37    1
    40    12    38    1
    41    12    39    1
    42    12    40    1
    43    13    41    1
    44    13    42    1
    45    13    43    1
    46    14    44    1
    47    19    45    1
    48    20    46    1
    49    20    47    1
    50    22    48    1
    51    23    49    1
    52    24    50    1
    53    25    51    1
    54    26    52    1
