@<TRIPOS>MOLECULE
1UNL_RRC_A_1293
 52 54 0 0 0
SMALL
GASTEIGER

@<TRIPOS>ATOM
      1 O          57.5260   30.7120   29.6960 O.3     1  UNL1       -0.3932
      2 C          58.5430   30.4700   30.6370 C.3     1  UNL1        0.0626
      3 CA         59.7790   30.0060   29.8600 C.3     1  UNL1        0.0461
      4 C          60.9360   29.9110   30.8560 C.3     1  UNL1       -0.0352
      5 C          61.5400   28.5300   31.0020 C.3     1  UNL1       -0.0635
      6 N          59.3650   28.7200   29.3170 N.pl3   1  UNL1       -0.3083
      7 C          59.1540   28.4240   28.0090 C.ar    1  UNL1        0.2191
      8 N          58.7540   27.1700   27.6870 N.ar    1  UNL1       -0.1947
      9 C          58.5380   26.8490   26.4000 C.ar    1  UNL1        0.1674
     10 N          58.1300   25.6970   25.9200 N.ar    1  UNL1       -0.3123
     11 C          57.8910   24.6280   26.9030 C.3     1  UNL1        0.0317
     12 C          56.3900   24.3410   26.8940 C.3     1  UNL1       -0.0444
     13 C          58.8760   23.5100   26.6870 C.3     1  UNL1       -0.0444
     14 C          58.0350   25.8320   24.5670 C.ar    1  UNL1        0.0985
     15 C          58.7260   27.7150   25.3830 C.ar    1  UNL1        0.1476
     16 N          58.4500   27.0880   24.1650 N.ar    1  UNL1       -0.2306
     17 N          59.3420   29.3060   27.0100 N.ar    1  UNL1       -0.1974
     18 C          59.1360   28.9930   25.7240 C.ar    1  UNL1        0.1519
     19 N          59.2820   29.8860   24.7360 N.pl3   1  UNL1       -0.3231
     20 C          59.3710   31.3210   24.9960 C.3     1  UNL1        0.0357
     21 C          60.7840   31.8420   25.1170 C.ar    1  UNL1       -0.0304
     22 C          61.1160   32.7270   26.1490 C.ar    1  UNL1       -0.0571
     23 C          62.4230   33.2180   26.2560 C.ar    1  UNL1       -0.0615
     24 C          63.3890   32.8540   25.3140 C.ar    1  UNL1       -0.0617
     25 C          63.0520   31.9900   24.2700 C.ar    1  UNL1       -0.0615
     26 C          61.7520   31.4840   24.1730 C.ar    1  UNL1       -0.0571
     27 H          56.7247   31.0089   30.1551 H       1  UNL1        0.2095
     28 H1         58.2342   29.7089   31.3228 H       1  UNL1        0.0575
     29 H2         58.7581   31.3546   31.1993 H       1  UNL1        0.0575
     30 HA         60.1142   30.6493   29.0735 H       1  UNL1        0.0521
     31 H          60.5751   30.2190   31.8151 H       1  UNL1        0.0281
     32 H          61.7131   30.5395   30.4740 H       1  UNL1        0.0281
     33 H          60.8014   27.8562   31.3832 H       1  UNL1        0.0230
     34 H          62.3675   28.5724   31.6791 H       1  UNL1        0.0230
     35 H          61.8779   28.1857   30.0469 H       1  UNL1        0.0230
     36 H          59.2238   27.9914   29.9639 H       1  UNL1        0.1493
     37 H          58.0974   24.8823   27.9216 H       1  UNL1        0.0523
     38 H          56.0839   24.0738   25.9041 H       1  UNL1        0.0249
     39 H          55.8580   25.2145   27.2083 H       1  UNL1        0.0249
     40 H          56.1772   23.5337   27.5633 H       1  UNL1        0.0249
     41 H          58.7857   23.1436   25.6858 H       1  UNL1        0.0249
     42 H          58.6728   22.7174   27.3765 H       1  UNL1        0.0249
     43 H          59.8695   23.8744   26.8452 H       1  UNL1        0.0249
     44 H          57.6982   25.0950   23.9279 H       1  UNL1        0.1029
     45 H          59.3308   29.5655   23.8064 H       1  UNL1        0.1479
     46 H          58.8572   31.5287   25.9113 H       1  UNL1        0.0511
     47 H          58.9326   31.8139   24.1535 H       1  UNL1        0.0511
     48 H          60.3979   33.0176   26.8308 H       1  UNL1        0.0621
     49 H          62.6735   33.8502   27.0323 H       1  UNL1        0.0618
     50 H          64.3498   33.2231   25.3898 H       1  UNL1        0.0618
     51 H          63.7624   31.7249   23.5700 H       1  UNL1        0.0618
     52 H          61.5058   30.8439   23.4018 H       1  UNL1        0.0621
@<TRIPOS>BOND
     1     1     2    1
     2     3     2    1
     3     3     4    1
     4     4     5    1
     5     3     6    1
     6     6     7    1
     7     7     8   ar
     8     8     9   ar
     9     9    10   ar
    10    10    11    1
    11    11    12    1
    12    11    13    1
    13    10    14   ar
    14     9    15   ar
    15    14    16   ar
    16    15    16   ar
    17     7    17   ar
    18    15    18   ar
    19    17    18   ar
    20    18    19    1
    21    19    20    1
    22    20    21    1
    23    21    22   ar
    24    22    23   ar
    25    23    24   ar
    26    24    25   ar
    27    21    26   ar
    28    25    26   ar
    29     1    27    1
    30     2    28    1
    31     2    29    1
    32     3    30    1
    33     4    31    1
    34     4    32    1
    35     5    33    1
    36     5    34    1
    37     5    35    1
    38     6    36    1
    39    11    37    1
    40    12    38    1
    41    12    39    1
    42    12    40    1
    43    13    41    1
    44    13    42    1
    45    13    43    1
    46    14    44    1
    47    19    45    1
    48    20    46    1
    49    20    47    1
    50    22    48    1
    51    23    49    1
    52    24    50    1
    53    25    51    1
    54    26    52    1
