7Z2O_IAJ_A_701
     RDKit          3D

 14 16  0  0  0  0  0  0  0  0999 V2000
  -12.3592    7.1922   24.9760 C   0  0  0  0  0  0  0  0  0  0  0  0
  -12.8353    7.3992   23.6942 C   0  0  0  0  0  0  0  0  0  0  0  0
  -13.2333    8.6767   23.3383 C   0  0  0  0  0  0  0  0  0  0  0  0
  -14.0334   10.7950   22.4089 C   0  0  0  0  0  0  0  0  0  0  0  0
  -13.8317   12.2613   24.0048 C   0  0  0  0  0  0  0  0  0  0  0  0
  -13.1942    9.7274   24.2671 C   0  0  0  0  0  0  0  0  0  0  0  0
  -14.4689   11.9317   21.9197 N   0  0  0  0  0  0  0  0  0  0  0  0
  -14.3196   12.8762   22.9544 N   0  0  0  0  0  0  0  0  0  0  0  0
  -12.2962    8.2378   25.9015 C   0  0  0  0  0  0  0  0  0  0  0  0
  -13.6461   10.9416   23.7152 N   0  0  0  0  0  0  0  0  0  0  0  0
  -12.1449   10.5656   27.6138 C   0  0  0  0  0  0  0  0  0  0  0  0
  -12.7078   10.6666   26.3012 O   0  0  0  0  0  0  0  0  0  0  0  0
  -12.7233    9.5166   25.5497 C   0  0  0  0  0  0  0  0  0  0  0  0
  -13.8894    9.1920   21.7756 S   0  0  0  0  0  0  0  0  0  0  0  0
  1  2  2  0
  2  3  1  0
  3  6  2  0
  4  7  2  0
  5  8  2  0
  7  8  1  0
  1  9  1  0
  5 10  1  0
  6 10  1  0
  4 10  1  0
 11 12  1  0
 12 13  1  0
  6 13  1  0
  9 13  2  0
  4 14  1  0
  3 14  1  0
M  END
