6XAF_GDP_B_1602
     RDKit          3D

 43 45  0  0  0  0  0  0  0  0999 V2000
    1.3386   -5.4160   26.0858 P   0  0  1  0  0  5  0  0  0  0  0  0
    1.0291   -5.9938   27.4440 O   0  0  0  0  0  0  0  0  0  0  0  0
    0.4933   -6.1411   25.0513 O   0  0  0  0  0  0  0  0  0  0  0  0
    1.2073   -3.9049   25.9800 O   0  0  0  0  0  0  0  0  0  0  0  0
    2.8731   -5.7631   25.6574 O   0  0  0  0  0  0  0  0  0  0  0  0
    3.8775   -6.8170   26.3952 P   0  0  2  0  0  5  0  0  0  0  0  0
    5.2066   -6.8082   25.6843 O   0  0  0  0  0  0  0  0  0  0  0  0
    3.1953   -8.1529   26.5174 O   0  0  0  0  0  0  0  0  0  0  0  0
    4.1205   -6.1773   27.8691 O   0  0  0  0  0  0  0  0  0  0  0  0
    4.7428   -6.9142   28.8825 C   0  0  0  0  0  0  0  0  0  0  0  0
    4.6783   -8.3626   28.5175 C   0  0  2  0  0  0  0  0  0  0  0  0
    3.9241   -9.0337   29.3510 O   0  0  0  0  0  0  0  0  0  0  0  0
    6.1812   -9.0682   28.5813 C   0  0  2  0  0  0  0  0  0  0  0  0
    6.1615  -10.0159   27.4439 O   0  0  0  0  0  0  0  0  0  0  0  0
    6.2076   -9.6456   29.6874 C   0  0  2  0  0  0  0  0  0  0  0  0
    7.0865  -10.8420   29.7064 O   0  0  0  0  0  0  0  0  0  0  0  0
    4.7100  -10.1983   29.9052 C   0  0  1  0  0  0  0  0  0  0  0  0
    4.3923  -10.3496   31.1864 N   0  0  0  0  0  4  0  0  0  0  0  0
    4.6386   -9.6427   32.3100 C   0  0  0  0  0  0  0  0  0  0  0  0
    4.0350  -10.2436   33.3512 N   0  0  0  0  0  0  0  0  0  0  0  0
    3.4081  -11.3140   32.8966 C   0  0  0  0  0  0  0  0  0  0  0  0
    2.5563  -12.3808   33.6041 C   0  0  0  0  0  0  0  0  0  0  0  0
    2.3295  -12.3677   34.7701 O   0  0  0  0  0  0  0  0  0  0  0  0
    2.0021  -13.4441   32.8473 N   0  0  0  0  0  4  0  0  0  0  0  0
    2.2401  -13.4953   31.4365 C   0  0  0  0  0  0  0  0  0  0  0  0
    1.6535  -14.5629   30.6816 N   0  0  0  0  0  0  0  0  0  0  0  0
    3.0301  -12.4840   30.7686 N   0  0  0  0  0  0  0  0  0  0  0  0
    3.6228  -11.3767   31.5402 C   0  0  0  0  0  0  0  0  0  0  0  0
   -0.4463   -5.9853   25.2348 H   0  0  0  0  0  0  0  0  0  0  0  0
    0.3069   -3.6406   26.2255 H   0  0  0  0  0  0  0  0  0  0  0  0
    3.0548   -8.5263   25.6332 H   0  0  0  0  0  0  0  0  0  0  0  0
    5.7643   -6.6098   28.9758 H   0  0  0  0  0  0  0  0  0  0  0  0
    4.2482   -6.7471   29.8165 H   0  0  0  0  0  0  0  0  0  0  0  0
    4.2774   -8.3966   27.5260 H   0  0  0  0  0  0  0  0  0  0  0  0
    7.0325   -8.4243   28.5057 H   0  0  0  0  0  0  0  0  0  0  0  0
    5.3875  -10.5956   27.5195 H   0  0  0  0  0  0  0  0  0  0  0  0
    6.5664   -8.9594   30.4258 H   0  0  0  0  0  0  0  0  0  0  0  0
    6.7793  -11.4796   29.0430 H   0  0  0  0  0  0  0  0  0  0  0  0
    4.5467  -11.1582   29.4616 H   0  0  0  0  0  0  0  0  0  0  0  0
    5.2007   -8.7787   32.3619 H   0  0  0  0  0  0  0  0  0  0  0  0
    1.4601  -14.1387   33.2866 H   0  0  0  0  0  0  0  0  0  0  0  0
    1.1161  -15.2506   31.1371 H   0  0  0  0  0  0  0  0  0  0  0  0
    1.7879  -14.6086   29.7073 H   0  0  0  0  0  0  0  0  0  0  0  0
  1  2  2  0
  1  3  1  1
  1  4  1  0
  1  5  1  0
  6  5  1  1
  6  7  2  0
  6  8  1  0
  6  9  1  0
  9 10  1  0
 11 10  1  0
 11 12  1  0
 11 13  1  0
 13 14  1  0
 13 15  1  0
 15 16  1  0
 12 17  1  0
 15 17  1  0
 17 18  1  0
 18 19  4  0
 19 20  4  0
 20 21  4  0
 21 22  4  0
 22 23  2  0
 22 24  4  0
 24 25  4  0
 25 26  1  0
 25 27  4  0
 18 28  4  0
 21 28  4  0
 27 28  4  0
  3 29  1  0
  4 30  1  0
  8 31  1  0
 10 32  1  0
 10 33  1  0
 11 34  1  1
 13 35  1  1
 14 36  1  0
 15 37  1  6
 16 38  1  0
 17 39  1  1
 19 40  1  0
 24 41  1  0
 26 42  1  0
 26 43  1  0
M  CHG  2  18   1  24   1
M  END
