5SIS_JSM_A_803
     RDKit          3D

 32 35  0  0  0  0  0  0  0  0999 V2000
   35.3176  110.7153   58.1113 C   0  0  0  0  0  0  0  0  0  0  0  0
   33.8575  109.0631   59.1099 C   0  0  0  0  0  0  0  0  0  0  0  0
   33.8274  107.9815   59.9795 C   0  0  0  0  0  0  0  0  0  0  0  0
   37.3961  112.0312   57.5287 C   0  0  0  0  0  0  0  0  0  0  0  0
   35.7799  106.0675   65.8527 C   0  0  0  0  0  0  0  0  0  0  0  0
   34.5886  101.7650   60.0068 C   0  0  0  0  0  0  0  0  0  0  0  0
   33.6632  101.7429   62.3873 C   0  0  0  0  0  0  0  0  0  0  0  0
   36.7144  112.9175   56.7144 C   0  0  0  0  0  0  0  0  0  0  0  0
   38.7567  112.1518   57.6896 C   0  0  0  0  0  0  0  0  0  0  0  0
   35.6672  100.7548   59.7620 C   0  0  0  0  0  0  0  0  0  0  0  0
   35.5177  103.8212   63.0762 C   0  0  0  0  0  0  0  0  0  0  0  0
   35.5847  105.1294   63.5521 C   0  0  0  0  0  0  0  0  0  0  0  0
   36.1868  109.2409   59.5115 C   0  0  0  0  0  0  0  0  0  0  0  0
   37.1608  110.0619   59.0731 N   0  0  0  0  0  0  0  0  0  0  0  0
   35.5579  106.2712   62.6773 C   0  0  0  0  0  0  0  0  0  0  0  0
   35.0423  109.6575   58.9055 N   0  0  0  0  0  0  0  0  0  0  0  0
   35.4030  103.3525   61.6991 C   0  0  0  0  0  0  0  0  0  0  0  0
   36.6686  110.9701   58.2206 C   0  0  0  0  0  0  0  0  0  0  0  0
   36.1941  108.1622   60.3875 C   0  0  0  0  0  0  0  0  0  0  0  0
   35.6783  105.0039   64.8802 N   0  0  0  0  0  0  0  0  0  0  0  0
   35.6717  103.7082   65.2298 N   0  0  0  0  0  0  0  0  0  0  0  0
   35.5735  102.9344   64.1418 C   0  0  0  0  0  0  0  0  0  0  0  0
   34.9791  107.5464   60.6018 C   0  0  0  0  0  0  0  0  0  0  0  0
   34.8400  106.4140   61.4803 N   0  0  0  0  0  0  0  0  0  0  0  0
   34.5352  102.2647   61.3547 N   0  0  0  0  0  0  0  0  0  0  0  0
   36.2699  107.2785   63.0225 O   0  0  0  0  0  0  0  0  0  0  0  0
   36.1000  103.9494   60.8396 O   0  0  0  0  0  0  0  0  0  0  0  0
   35.3908   99.4403   60.2492 N   0  0  0  0  0  0  0  0  0  0  0  0
   35.8278   99.2148   61.5962 C   0  0  0  0  0  0  0  0  0  0  0  0
   39.4341  113.1667   57.0299 C   0  0  0  0  0  0  0  0  0  0  0  0
   37.3837  113.9326   56.0531 C   0  0  0  0  0  0  0  0  0  0  0  0
   38.7600  114.0626   56.2098 C   0  0  0  0  0  0  0  0  0  0  0  0
  2  3  2  0
  4  8  2  0
  4  9  1  0
  6 10  1  0
 11 12  2  0
 13 14  2  0
 12 15  1  0
 13 16  1  0
  1 16  1  0
  2 16  1  0
 11 17  1  0
 14 18  1  0
  1 18  2  0
  4 18  1  0
 13 19  1  0
 12 20  1  0
  5 20  1  1
 20 21  1  0
 11 22  1  0
 21 22  2  0
 19 23  2  0
  3 23  1  0
 15 24  1  0
 23 24  1  0
 17 25  1  0
  7 25  1  6
  6 25  1  1
 15 26  2  0
 17 27  2  0
 10 28  1  1
 29 28  1  1
  9 30  2  0
  8 31  1  0
 30 32  1  0
 31 32  2  0
M  END
$$$$
