
     RDKit          3D

 26 27  0  0  0  0  0  0  0  0999 V2000
   68.7809  104.3802   90.3959 C   0  0  0  0  0  0  0  0  0  0  0  0
   69.5291  103.3835   91.0026 C   0  0  0  0  0  0  0  0  0  0  0  0
   69.2282  103.1672   92.3354 C   0  0  0  0  0  0  0  0  0  0  0  0
   68.2840  103.8411   93.0213 N   0  0  0  0  0  0  0  0  0  0  0  0
   67.8128  105.0594   91.0325 N   0  0  0  0  0  0  0  0  0  0  0  0
   67.5969  104.7607   92.3284 C   0  0  0  0  0  0  0  0  0  0  0  0
   70.4013   99.7946   91.4936 C   0  0  0  0  0  0  0  0  0  0  0  0
   66.5003  105.4995   93.0329 C   0  0  0  0  0  0  0  0  0  0  0  0
   67.5099   97.6296   89.5733 C   0  0  0  0  0  0  0  0  0  0  0  0
   69.0247   97.8180   89.4877 C   0  0  0  0  0  0  0  0  0  0  0  0
   69.5907  101.6295   88.2294 C   0  0  0  0  0  0  0  0  0  0  0  0
   70.6004  102.5966   90.3079 C   0  0  0  0  0  0  0  0  0  0  0  0
   69.9762  100.1196   90.0902 C   0  0  0  0  0  0  0  0  0  0  0  0
   69.3947   99.2491   89.2377 C   0  0  0  0  0  0  0  0  0  0  0  0
   68.9408  104.7294   89.0553 N   0  0  0  0  0  0  0  0  0  0  0  0
   70.0808  101.4284   89.5950 N   0  0  0  0  0  0  0  0  0  0  0  0
   65.9322   95.9175   84.0912 O   0  0  0  0  0  0  0  0  0  0  0  0
   67.8619   97.2692   86.2037 O   0  0  0  0  0  0  0  0  0  0  0  0
   63.8439   95.0370   85.2519 O   0  0  0  0  0  0  0  0  0  0  0  0
   64.0381   97.4714   84.8644 O   0  0  0  0  0  0  0  0  0  0  0  0
   66.1111   98.6574   87.4381 O   0  0  0  0  0  0  0  0  0  0  0  0
   67.0811   96.6709   88.6201 O   0  0  0  0  0  0  0  0  0  0  0  0
   65.4630   96.3693   86.6514 O   0  0  0  0  0  0  0  0  0  0  0  0
   64.9463   96.1961   85.1732 P   0  0  0  0  0  5  0  0  0  0  0  0
   66.7104   97.2001   87.1557 P   0  0  2  0  0  5  0  0  0  0  0  0
   69.0306   99.9783   87.6854 S   0  0  0  0  0  0  0  0  0  0  0  0
  1  2  4  0
  2  3  4  0
  3  4  4  0
  1  5  4  0
  5  6  4  0
  4  6  4  0
  6  8  1  0
  9 10  1  0
  2 12  1  0
  7 13  1  0
 10 14  1  0
 13 14  2  0
  1 15  1  0
 11 16  1  0
 12 16  1  0
 13 16  1  0
  9 22  1  0
 17 24  2  0
 20 24  1  0
 23 24  1  0
 19 24  1  0
 18 25  2  0
 23 25  1  0
 25 21  1  1
 22 25  1  0
 11 26  1  0
 14 26  1  0
M  END
