7Z7F_IF3_A_606
     RDKit          3D

 14 15  0  0  0  0  0  0  0  0999 V2000
    9.5704   30.6894    6.0444 C   0  0  0  0  0  0  0  0  0  0  0  0
   13.2853   27.6062    1.8266 C   0  0  0  0  0  0  0  0  0  0  0  0
   13.5594   28.9508    3.9108 C   0  0  0  0  0  0  0  0  0  0  0  0
   14.3144   29.4678    4.9349 C   0  0  0  0  0  0  0  0  0  0  0  0
   13.6780   30.1514    5.9516 C   0  0  0  0  0  0  0  0  0  0  0  0
   11.6060   29.8018    4.9366 C   0  0  0  0  0  0  0  0  0  0  0  0
   15.8644   30.0959    6.3099 C   0  0  0  0  0  0  0  0  0  0  0  0
   14.4875   31.2870    8.0259 C   0  0  0  0  0  0  0  0  0  0  0  0
   14.1396   28.2400    2.8368 N   0  0  0  0  0  0  0  0  0  0  0  0
   12.3421   30.3124    5.9461 N   0  0  0  0  0  0  0  0  0  0  0  0
   12.2384   29.1390    3.9542 N   0  0  0  0  0  0  0  0  0  0  0  0
   10.1942   29.9692    4.9264 N   0  0  0  0  0  0  0  0  0  0  0  0
   14.6799   30.5284    6.7917 N   0  0  0  0  0  0  0  0  0  0  0  0
   15.6338   29.4375    5.1565 N   0  0  0  0  0  0  0  0  0  0  0  0
  3  4  2  0
  4  5  1  0
  2  9  1  1
  3  9  1  0
  5 10  2  0
  6 10  1  0
  3 11  1  0
  6 11  2  0
  6 12  1  0
  1 12  1  1
  7 13  1  0
  5 13  1  0
  8 13  1  6
  7 14  2  0
  4 14  1  0
M  END
$$$$
