7XEK_9YX_A_501
     RDKit          3D

 37 38  0  0  0  0  0  0  0  0999 V2000
   34.4238  -31.4835  -35.4551 O   0  0  0  0  0  0  0  0  0  0  0  0
   34.8064  -31.5562  -36.9156 P   0  0  2  0  0  5  0  0  0  0  0  0
   36.0175  -30.4142  -37.2281 O   0  0  0  0  0  0  0  0  0  0  0  0
   33.4404  -31.2092  -37.8545 O   0  0  0  0  0  0  0  0  0  0  0  0
   35.3728  -33.1284  -37.2590 O   0  0  0  0  0  0  0  0  0  0  0  0
   35.0575  -33.4385  -38.5934 C   0  0  2  0  0  0  0  0  0  0  0  0
   35.8506  -34.6421  -39.0714 C   0  0  0  0  0  0  0  0  0  0  0  0
   35.3488  -35.2810  -40.2203 C   0  0  0  0  0  0  0  0  0  0  0  0
   35.9120  -36.4150  -40.6935 N   0  0  0  0  0  0  0  0  0  0  0  0
   36.9638  -37.0041  -40.0809 C   0  0  0  0  0  0  0  0  0  0  0  0
   37.4837  -38.3029  -40.6193 C   0  0  1  0  0  0  0  0  0  0  0  0
   37.5146  -36.4306  -38.9262 C   0  0  0  0  0  0  0  0  0  0  0  0
   38.4987  -37.1619  -38.2491 O   0  0  0  0  0  0  0  0  0  0  0  0
   37.0491  -35.1612  -38.4683 C   0  0  0  0  0  0  0  0  0  0  0  0
   37.8708  -34.4514  -37.3753 C   0  0  1  0  0  0  0  0  0  0  0  0
   38.4037  -33.1358  -37.7407 N   0  0  0  0  0  0  0  0  0  0  0  0
   36.9970  -34.3499  -35.7817 S   0  0  0  0  0  0  0  0  0  0  0  0
   37.8199  -32.7726  -35.4174 C   0  0  2  0  0  0  0  0  0  0  0  0
   38.8857  -32.5436  -36.4902 C   0  0  2  0  0  0  0  0  0  0  0  0
   39.2207  -31.0834  -36.6565 C   0  0  0  0  0  0  0  0  0  0  0  0
   39.1999  -30.4955  -37.9186 O   0  0  0  0  0  0  0  0  0  0  0  0
   39.5756  -30.4012  -35.6576 O   0  0  0  0  0  0  0  0  0  0  0  0
   36.8227  -30.7677  -36.7733 H   0  0  0  0  0  0  0  0  0  0  0  0
   33.3486  -31.9814  -38.4678 H   0  0  0  0  0  0  0  0  0  0  0  0
   35.2320  -32.5890  -39.2888 H   0  0  0  0  0  0  0  0  0  0  0  0
   33.9702  -33.6751  -38.6500 H   0  0  0  0  0  0  0  0  0  0  0  0
   34.4884  -34.8827  -40.7434 H   0  0  0  0  0  0  0  0  0  0  0  0
   36.7051  -38.7868  -41.2456 H   0  0  0  0  0  0  0  0  0  0  0  0
   38.3879  -38.1339  -41.2420 H   0  0  0  0  0  0  0  0  0  0  0  0
   37.7562  -38.9794  -39.7819 H   0  0  0  0  0  0  0  0  0  0  0  0
   38.9041  -36.8786  -37.3668 H   0  0  0  0  0  0  0  0  0  0  0  0
   38.7781  -35.0561  -37.1774 H   0  0  0  0  0  0  0  0  0  0  0  0
   37.6431  -32.5231  -38.0864 H   0  0  0  0  0  0  0  0  0  0  0  0
   38.2791  -32.8072  -34.4067 H   0  0  0  0  0  0  0  0  0  0  0  0
   37.0530  -31.9694  -35.4432 H   0  0  0  0  0  0  0  0  0  0  0  0
   39.8210  -33.0652  -36.1853 H   0  0  0  0  0  0  0  0  0  0  0  0
   38.4079  -29.9411  -38.2208 H   0  0  0  0  0  0  0  0  0  0  0  0
  1  2  2  0
  2  3  1  1
  2  4  1  0
  2  5  1  0
  5  6  1  0
  6  7  1  0
  7  8  2  0
  8  9  1  0
  9 10  2  0
 10 11  1  0
 10 12  1  0
 12 13  1  0
  7 14  1  0
 12 14  2  0
 15 14  1  0
 15 16  1  0
 15 17  1  0
 17 18  1  0
 18 19  1  0
 16 19  1  0
 19 20  1  0
 20 21  1  0
 20 22  2  0
  3 23  1  0
  4 24  1  0
  6 25  1  6
  6 26  1  0
  8 27  1  0
 11 28  1  6
 11 29  1  0
 11 30  1  0
 13 31  1  0
 15 32  1  1
 16 33  1  0
 18 34  1  1
 18 35  1  0
 19 36  1  1
 21 37  1  0
M  END
