7D9L_GSF_A_305
     RDKit          3D

 39 38  0  0  0  0  0  0  0  0999 V2000
    4.0851    7.4577    7.0611 C   0  0  0  0  0  0  0  0  0  0  0  0
    3.6281    8.3766    5.9149 C   0  0  0  0  0  0  0  0  0  0  0  0
    3.3317    7.6050    4.6607 C   0  0  0  0  0  0  0  0  0  0  0  0
    2.1382    7.2970    4.3960 O   0  0  0  0  0  0  0  0  0  0  0  0
    3.2909    5.3508    6.0119 C   0  0  0  0  0  0  0  0  0  0  0  0
    3.9734    4.1383    6.0536 O   0  0  0  0  0  0  0  0  0  0  0  0
    2.7909    5.7523    4.9260 O   0  0  0  0  0  0  0  0  0  0  0  0
    1.8122    6.5702    7.5117 N   0  0  0  0  0  0  0  0  0  0  0  0
    3.2070    6.2018    7.2491 C   0  0  2  0  0  0  0  0  0  0  0  0
    4.4037    7.1990    3.7929 N   0  0  0  0  0  0  0  0  0  0  0  0
    5.0128    5.8646    3.7928 C   0  0  2  0  0  0  0  0  0  0  0  0
    3.9558    4.7666    3.5715 C   0  0  0  0  0  0  0  0  0  0  0  0
    2.5632    4.9588    4.7137 S   0  0  0  0  0  4  0  0  0  0  0  0
    3.2018    4.8697    6.0944 O   0  0  0  0  0  0  0  0  0  0  0  0
    1.6798    3.5053    4.5830 O   0  0  0  0  0  0  0  0  0  0  0  0
    5.8290    5.6651    5.0470 C   0  0  0  0  0  0  0  0  0  0  0  0
    6.7587    4.8128    5.0710 O   0  0  0  0  0  0  0  0  0  0  0  0
    5.5104    6.4132    6.2293 N   0  0  0  0  0  0  0  0  0  0  0  0
    4.2745    6.2080    6.9793 C   0  0  0  0  0  0  0  0  0  0  0  0
    3.3078    5.3953    6.1801 C   0  0  0  0  0  0  0  0  0  0  0  0
    2.8284    5.8816    4.9679 O   0  0  0  0  0  0  0  0  0  0  0  0
    2.9227    4.2741    6.6075 O   0  0  0  0  0  0  0  0  0  0  0  0
    5.1345    7.1460    6.8633 H   0  0  0  0  0  0  0  0  0  0  0  0
    4.0881    8.0482    8.0047 H   0  0  0  0  0  0  0  0  0  0  0  0
    2.7036    8.9096    6.2284 H   0  0  0  0  0  0  0  0  0  0  0  0
    4.3975    9.1556    5.7254 H   0  0  0  0  0  0  0  0  0  0  0  0
    4.0443    3.5523    5.2301 H   0  0  0  0  0  0  0  0  0  0  0  0
    1.7453    6.9494    8.4839 H   0  0  0  0  0  0  0  0  0  0  0  0
    1.2343    5.6980    7.5227 H   0  0  0  0  0  0  0  0  0  0  0  0
    3.5949    5.6007    8.1021 H   0  0  0  0  0  0  0  0  0  0  0  0
    4.8290    7.9181    3.1654 H   0  0  0  0  0  0  0  0  0  0  0  0
    5.7091    5.8165    2.9260 H   0  0  0  0  0  0  0  0  0  0  0  0
    3.5740    4.7685    2.5296 H   0  0  0  0  0  0  0  0  0  0  0  0
    4.4182    3.7746    3.7638 H   0  0  0  0  0  0  0  0  0  0  0  0
    2.3299    2.7827    4.7746 H   0  0  0  0  0  0  0  0  0  0  0  0
    6.2059    7.0997    6.5995 H   0  0  0  0  0  0  0  0  0  0  0  0
    4.4973    5.7060    7.9447 H   0  0  0  0  0  0  0  0  0  0  0  0
    3.8102    7.1923    7.2037 H   0  0  0  0  0  0  0  0  0  0  0  0
    2.1721    5.3453    4.4146 H   0  0  0  0  0  0  0  0  0  0  0  0
  1  2  1  0
  2  3  1  0
  3  4  2  0
  5  6  1  0
  5  7  2  0
  1  9  1  0
  5  9  1  0
  9  8  1  0
  3 10  1  0
 10 11  1  0
 11 12  1  0
 12 13  1  0
 13 14  2  0
 13 15  1  1
 11 16  1  0
 16 17  2  0
 16 18  1  0
 18 19  1  0
 19 20  1  0
 20 21  1  0
 20 22  2  0
  1 23  1  0
  1 24  1  0
  2 25  1  0
  2 26  1  0
  6 27  1  0
  8 28  1  0
  8 29  1  0
  9 30  1  6
 10 31  1  0
 11 32  1  1
 12 33  1  0
 12 34  1  0
 15 35  1  0
 18 36  1  0
 19 37  1  0
 19 38  1  0
 21 39  1  0
M  END
