1NAV_IH5_A_600
     RDKit          3D

 39 40  0  0  0  0  0  0  0  0999 V2000
   40.8941   14.5467   17.7288 O   0  0  0  0  0  0  0  0  0  0  0  0
   42.0179   14.6337   18.5444 C   0  0  0  0  0  0  0  0  0  0  0  0
   41.9705   15.2983   19.6141 O   0  0  0  0  0  0  0  0  0  0  0  0
   43.2944   13.9788   18.1247 C   0  0  2  0  0  0  0  0  0  0  0  0
   44.3689   14.2468   19.1415 C   0  0  0  0  0  0  0  0  0  0  0  0
   44.0335   14.7321   20.4141 C   0  0  0  0  0  0  0  0  0  0  0  0
   45.0338   15.0169   21.3490 C   0  0  0  0  0  0  0  0  0  0  0  0
   46.3844   14.8417   21.0135 C   0  0  0  0  0  0  0  0  0  0  0  0
   47.3686   15.1483   21.9627 O   0  0  0  0  0  0  0  0  0  0  0  0
   48.2125   16.2675   21.8985 C   0  0  0  0  0  0  0  0  0  0  0  0
   49.2289   16.3929   22.8474 C   0  0  0  0  0  0  0  0  0  0  0  0
   50.0912   17.4890   22.8182 C   0  0  0  0  0  0  0  0  0  0  0  0
   49.9470   18.4818   21.8392 C   0  0  0  0  0  0  0  0  0  0  0  0
   50.8242   19.5665   21.8260 O   0  0  0  0  0  0  0  0  0  0  0  0
   48.9178   18.3792   20.8776 C   0  0  0  0  0  0  0  0  0  0  0  0
   48.0502   17.2701   20.9256 C   0  0  0  0  0  0  0  0  0  0  0  0
   48.7390   19.4414   19.8027 C   0  0  2  0  0  0  0  0  0  0  0  0
   47.4161   20.1953   19.9860 C   0  0  2  0  0  0  0  0  0  0  0  0
   48.8341   18.8284   18.3996 C   0  0  2  0  0  0  0  0  0  0  0  0
   46.7248   14.3421   19.7404 C   0  0  0  0  0  0  0  0  0  0  0  0
   45.7191   14.0589   18.8099 C   0  0  0  0  0  0  0  0  0  0  0  0
   48.3960   14.0125   19.3026 Cl  0  0  0  0  0  0  0  0  0  0  0  0
   44.5824   15.6286   22.9328 Cl  0  0  0  0  0  0  0  0  0  0  0  0
   40.8408   13.8559   16.9898 H   0  0  0  0  0  0  0  0  0  0  0  0
   43.5993   14.3702   17.1301 H   0  0  0  0  0  0  0  0  0  0  0  0
   43.1356   12.8842   18.0091 H   0  0  0  0  0  0  0  0  0  0  0  0
   42.9950   14.8923   20.6776 H   0  0  0  0  0  0  0  0  0  0  0  0
   49.3552   15.6326   23.6076 H   0  0  0  0  0  0  0  0  0  0  0  0
   50.8769   17.5659   23.5591 H   0  0  0  0  0  0  0  0  0  0  0  0
   51.5985   19.6330   22.4761 H   0  0  0  0  0  0  0  0  0  0  0  0
   47.2465   17.1892   20.2067 H   0  0  0  0  0  0  0  0  0  0  0  0
   49.5491   20.1985   19.8735 H   0  0  0  0  0  0  0  0  0  0  0  0
   47.3385   20.5794   21.0256 H   0  0  0  0  0  0  0  0  0  0  0  0
   46.5455   19.5373   19.7801 H   0  0  0  0  0  0  0  0  0  0  0  0
   47.3734   21.0617   19.2920 H   0  0  0  0  0  0  0  0  0  0  0  0
   49.8629   18.9537   17.9990 H   0  0  0  0  0  0  0  0  0  0  0  0
   48.1291   19.3425   17.7119 H   0  0  0  0  0  0  0  0  0  0  0  0
   48.5842   17.7463   18.4141 H   0  0  0  0  0  0  0  0  0  0  0  0
   45.9889   13.6855   17.8294 H   0  0  0  0  0  0  0  0  0  0  0  0
  1  2  1  0
  2  3  2  0
  2  4  1  0
  4  5  1  0
  5  6  2  0
  6  7  1  0
  7  8  2  0
  8  9  1  0
  9 10  1  0
 10 11  2  0
 11 12  1  0
 12 13  2  0
 13 14  1  0
 13 15  1  0
 10 16  1  0
 15 16  2  0
 15 17  1  0
 17 18  1  0
 17 19  1  0
  8 20  1  0
  5 21  1  0
 20 21  2  0
 20 22  1  0
  7 23  1  0
  1 24  1  0
  4 25  1  6
  4 26  1  0
  6 27  1  0
 11 28  1  0
 12 29  1  0
 14 30  1  0
 16 31  1  0
 17 32  1  6
 18 33  1  1
 18 34  1  0
 18 35  1  0
 19 36  1  6
 19 37  1  0
 19 38  1  0
 21 39  1  0
M  END
