7B94_ANP_A_401
     RDKit          3D

 31 33  0  0  0  0  0  0  0  0999 V2000
  -29.6291    1.4005   -3.2279 P   0  0  2  0  0  0  0  0  0  0  0  0
  -30.5751    0.7451   -2.2530 O   0  0  0  0  0  0  0  0  0  0  0  0
  -28.8995    2.7427   -2.4785 O   0  0  0  0  0  0  0  0  0  0  0  0
  -30.4362    1.9769   -4.5956 O   0  0  0  0  0  0  0  0  0  0  0  0
  -28.4839   -0.1491   -5.3508 P   0  0  1  0  0  0  0  0  0  0  0  0
  -28.1161    1.0887   -6.1544 O   0  0  0  0  0  0  0  0  0  0  0  0
  -27.3465   -1.3372   -5.7742 O   0  0  0  0  0  0  0  0  0  0  0  0
  -28.3639    0.2789   -3.6773 N   0  0  0  0  0  0  0  0  0  0  0  0
  -30.4950    0.0470   -7.2305 P   0  0  2  0  0  0  0  0  0  0  0  0
  -29.2448    0.3210   -8.0662 O   0  0  0  0  0  0  0  0  0  0  0  0
  -31.2846    1.4864   -6.8969 O   0  0  0  0  0  0  0  0  0  0  0  0
  -30.0000   -0.6915   -5.8129 O   0  0  0  0  0  0  0  0  0  0  0  0
  -31.4149   -1.0442   -8.1081 O   0  0  0  0  0  0  0  0  0  0  0  0
  -31.0616   -2.3597   -7.9371 C   0  0  0  0  0  0  0  0  0  0  0  0
  -31.8595   -3.2859   -8.8619 C   0  0  1  0  0  0  0  0  0  0  0  0
  -32.9425   -2.5532   -9.3216 O   0  0  0  0  0  0  0  0  0  0  0  0
  -30.9684   -3.6222  -10.0127 C   0  0  1  0  0  0  0  0  0  0  0  0
  -31.3684   -4.8236  -10.6273 O   0  0  0  0  0  0  0  0  0  0  0  0
  -31.3632   -2.5317  -11.0191 C   0  0  1  0  0  0  0  0  0  0  0  0
  -31.1093   -2.8839  -12.3204 O   0  0  0  0  0  0  0  0  0  0  0  0
  -32.8646   -2.5180  -10.7038 C   0  0  2  0  0  0  0  0  0  0  0  0
  -33.5580   -1.4270  -11.3036 N   0  0  0  0  0  0  0  0  0  0  0  0
  -33.4058   -0.1379  -10.9263 C   0  0  0  0  0  0  0  0  0  0  0  0
  -34.1941    0.6479  -11.6813 N   0  0  0  0  0  0  0  0  0  0  0  0
  -34.8719   -0.1139  -12.5616 C   0  0  0  0  0  0  0  0  0  0  0  0
  -35.7952    0.1934  -13.5445 C   0  0  0  0  0  0  0  0  0  0  0  0
  -36.2138    1.5423  -13.7957 N   0  0  0  0  0  0  0  0  0  0  0  0
  -36.2846   -0.8384  -14.2576 N   0  0  0  0  0  0  0  0  0  0  0  0
  -35.8878   -2.1055  -14.0177 C   0  0  0  0  0  0  0  0  0  0  0  0
  -34.9771   -2.3912  -13.0454 N   0  0  0  0  0  0  0  0  0  0  0  0
  -34.4585   -1.4070  -12.3073 C   0  0  0  0  0  0  0  0  0  0  0  0
  1  2  2  0
  1  3  1  1
  1  4  1  0
  5  6  2  0
  5  7  1  1
  1  8  1  0
  5  8  1  0
  9 10  2  0
  9 11  1  1
  5 12  1  0
  9 12  1  0
  9 13  1  0
 13 14  1  0
 15 14  1  1
 15 16  1  0
 15 17  1  0
 17 18  1  6
 17 19  1  0
 19 20  1  6
 16 21  1  0
 19 21  1  0
 21 22  1  1
 22 23  1  0
 23 24  2  0
 24 25  1  0
 25 26  2  0
 26 27  1  0
 26 28  1  0
 28 29  2  0
 29 30  1  0
 22 31  1  0
 25 31  1  0
 30 31  2  0
M  END
$$$$
