6ZXQ_IMO_A_503
     RDKit          3D

 27 29  0  0  0  0  0  0  0  0999 V2000
  -19.4005   -5.0204    9.5714 P   0  0  2  0  0  0  0  0  0  0  0  0
  -19.9374   -3.4620   10.0087 O   0  0  0  0  0  0  0  0  0  0  0  0
  -16.5847   -4.3548   12.8421 C   0  0  0  0  0  0  0  0  0  0  0  0
  -16.3067   -7.3657   16.1162 C   0  0  1  0  0  0  0  0  0  0  0  0
  -16.9582   -6.6188   17.2322 C   0  0  1  0  0  0  0  0  0  0  0  0
  -17.0577   -7.6539   18.3222 C   0  0  1  0  0  0  0  0  0  0  0  0
  -16.0473   -8.6978   17.8872 C   0  0  1  0  0  0  0  0  0  0  0  0
  -16.5290   -9.9998   18.4878 C   0  0  0  0  0  0  0  0  0  0  0  0
  -17.9459   -4.8665    8.7283 O   0  0  0  0  0  0  0  0  0  0  0  0
  -20.4908   -5.6079    8.7173 O   0  0  0  0  0  0  0  0  0  0  0  0
  -17.7525  -12.1338   18.5173 P   0  0  2  0  0  0  0  0  0  0  0  0
  -16.3705  -13.0519   18.3451 O   0  0  0  0  0  0  0  0  0  0  0  0
  -18.2759  -11.9986   20.0975 O   0  0  0  0  0  0  0  0  0  0  0  0
  -18.8573  -12.8323   17.7216 O   0  0  0  0  0  0  0  0  0  0  0  0
  -17.5788  -10.5836   17.8204 O   0  0  0  0  0  0  0  0  0  0  0  0
  -16.2008   -8.6912   16.5037 O   0  0  0  0  0  0  0  0  0  0  0  0
  -17.1632   -7.2767   14.9470 N   0  0  0  0  0  0  0  0  0  0  0  0
  -17.1398   -6.2848   14.0137 C   0  0  0  0  0  0  0  0  0  0  0  0
  -16.3950   -5.1819   13.8848 N   0  0  0  0  0  0  0  0  0  0  0  0
  -17.5274   -4.5984   11.8867 N   0  0  0  0  0  0  0  0  0  0  0  0
  -18.3007   -5.7084   11.9865 C   0  0  0  0  0  0  0  0  0  0  0  0
  -19.2460   -5.9186   10.9955 O   0  0  0  0  0  0  0  0  0  0  0  0
  -18.1083   -6.5568   13.0533 C   0  0  0  0  0  0  0  0  0  0  0  0
  -18.6993   -7.6868   13.4030 N   0  0  0  0  0  0  0  0  0  0  0  0
  -18.1277   -8.1230   14.5491 C   0  0  0  0  0  0  0  0  0  0  0  0
  -16.2554   -5.4937   17.6548 O   0  0  0  0  0  0  0  0  0  0  0  0
  -16.7577   -7.1738   19.5842 O   0  0  0  0  0  0  0  0  0  0  0  0
  1  2  1  1
  4  5  1  0
  5  6  1  0
  6  7  1  0
  7  8  1  1
  1  9  1  0
  1 10  2  0
 11 12  1  1
 11 13  1  0
 11 14  2  0
  8 15  1  0
 11 15  1  0
  4 16  1  0
  7 16  1  0
  4 17  1  6
 17 18  1  0
  3 19  2  0
 18 19  1  0
  3 20  1  0
 20 21  2  0
  1 22  1  0
 21 22  1  0
 18 23  2  0
 21 23  1  0
 23 24  1  0
 17 25  1  0
 24 25  2  0
  5 26  1  1
  6 27  1  1
M  END
$$$$
