7FRX_O88_F_605
     RDKit          3D

 47 49  0  0  0  0  0  0  0  0999 V2000
   51.8356  -31.1712   35.7433 C   0  0  0  0  0  0  0  0  0  0  0  0
   54.9289  -31.2149   44.9505 O   0  0  0  0  0  0  0  0  0  0  0  0
   52.6324  -32.2936   35.4877 C   0  0  0  0  0  0  0  0  0  0  0  0
   52.4302  -28.3507   41.7266 C   0  0  0  0  0  0  0  0  0  0  0  0
   52.6691  -28.8335   43.0167 C   0  0  0  0  0  0  0  0  0  0  0  0
   51.2962  -31.8252   45.9960 C   0  0  0  0  0  0  0  0  0  0  0  0
   50.3786  -32.8553   46.2327 C   0  0  0  0  0  0  0  0  0  0  0  0
   49.3085  -32.6244   47.0966 O   0  0  0  0  0  0  0  0  0  0  0  0
   52.5433  -33.2650   44.4991 C   0  0  0  0  0  0  0  0  0  0  0  0
   50.5464  -34.0994   45.5991 C   0  0  0  0  0  0  0  0  0  0  0  0
   51.6306  -34.2973   44.7322 C   0  0  0  0  0  0  0  0  0  0  0  0
   53.2427  -30.0982   43.2010 C   0  0  0  0  0  0  0  0  0  0  0  0
   52.3838  -32.0274   45.1357 C   0  0  0  0  0  0  0  0  0  0  0  0
   53.5577  -30.8852   42.0855 C   0  0  0  0  0  0  0  0  0  0  0  0
   53.3193  -30.4036   40.7949 C   0  0  0  0  0  0  0  0  0  0  0  0
   49.6370  -35.1302   45.8306 O   0  0  0  0  0  0  0  0  0  0  0  0
   52.7680  -29.1266   40.6068 C   0  0  0  0  0  0  0  0  0  0  0  0
   52.3858  -31.3054   38.0989 C   0  0  0  0  0  0  0  0  0  0  0  0
   49.2682  -29.6406   37.2598 O   0  0  0  0  0  0  0  0  0  0  0  0
   53.1823  -32.4259   37.8493 C   0  0  0  0  0  0  0  0  0  0  0  0
   51.7121  -30.6715   37.0474 C   0  0  0  0  0  0  0  0  0  0  0  0
   52.4752  -28.6288   39.2196 C   0  0  2  0  0  0  0  0  0  0  0  0
   51.0159  -28.1686   36.3778 O   0  0  0  0  0  0  0  0  0  0  0  0
   50.7164  -29.2557   37.3740 S   0  0  1  0  0  6  0  0  0  0  0  0
   52.7392  -32.7649   34.1793 O   0  0  0  0  0  0  0  0  0  0  0  0
   53.3102  -32.9254   36.5459 C   0  0  0  0  0  0  0  0  0  0  0  0
   54.1047  -34.0439   36.2994 O   0  0  0  0  0  0  0  0  0  0  0  0
   51.0311  -28.6711   38.9804 N   0  0  0  0  0  0  0  0  0  0  0  0
   53.5155  -30.7170   44.8248 S   0  0  1  0  0  6  0  0  0  0  0  0
   53.3156  -29.6204   45.8339 O   0  0  0  0  0  0  0  0  0  0  0  0
   51.3147  -30.6925   34.9239 H   0  0  0  0  0  0  0  0  0  0  0  0
   51.9782  -27.3747   41.6011 H   0  0  0  0  0  0  0  0  0  0  0  0
   52.3991  -28.2248   43.8703 H   0  0  0  0  0  0  0  0  0  0  0  0
   51.1577  -30.8665   46.4803 H   0  0  0  0  0  0  0  0  0  0  0  0
   49.1315  -33.2123   47.9024 H   0  0  0  0  0  0  0  0  0  0  0  0
   53.3698  -33.4307   43.8198 H   0  0  0  0  0  0  0  0  0  0  0  0
   51.7652  -35.2503   44.2363 H   0  0  0  0  0  0  0  0  0  0  0  0
   53.9795  -31.8738   42.2140 H   0  0  0  0  0  0  0  0  0  0  0  0
   53.5601  -31.0269   39.9423 H   0  0  0  0  0  0  0  0  0  0  0  0
   49.7043  -36.0162   45.3433 H   0  0  0  0  0  0  0  0  0  0  0  0
   52.2948  -30.9321   39.1115 H   0  0  0  0  0  0  0  0  0  0  0  0
   53.6996  -32.9059   38.6703 H   0  0  0  0  0  0  0  0  0  0  0  0
   53.0101  -29.2737   38.4879 H   0  0  0  0  0  0  0  0  0  0  0  0
   52.8582  -27.5905   39.0945 H   0  0  0  0  0  0  0  0  0  0  0  0
   53.4338  -33.4511   33.9105 H   0  0  0  0  0  0  0  0  0  0  0  0
   55.0087  -34.1610   36.7417 H   0  0  0  0  0  0  0  0  0  0  0  0
   50.6647  -27.6919   39.0256 H   0  0  0  0  0  0  0  0  0  0  0  0
  1  3  2  0
  4  5  2  0
  6  7  2  0
  7  8  1  0
  7 10  1  0
  9 11  1  0
 10 11  2  0
  5 12  1  0
  9 13  2  0
  6 13  1  0
 12 14  2  0
 14 15  1  0
 10 16  1  0
 15 17  2  0
  4 17  1  0
 18 20  1  0
 18 21  2  0
  1 21  1  0
 17 22  1  0
 21 24  1  0
 19 24  2  0
 23 24  2  0
  3 25  1  0
 20 26  2  0
  3 26  1  0
 26 27  1  0
 24 28  1  1
 22 28  1  0
 29 12  1  6
 13 29  1  0
  2 29  2  0
 29 30  2  0
  1 31  1  0
  4 32  1  0
  5 33  1  0
  6 34  1  0
  8 35  1  0
  9 36  1  0
 11 37  1  0
 14 38  1  0
 15 39  1  0
 16 40  1  0
 18 41  1  0
 20 42  1  0
 22 43  1  6
 22 44  1  0
 25 45  1  0
 27 46  1  0
 28 47  1  0
M  END
