7UP3_NZ0_B_305
     RDKit          3D

 35 37  0  0  0  0  0  0  0  0999 V2000
   -8.2727   20.3357  -17.3442 C   0  0  0  0  0  0  0  0  0  0  0  0
   -9.2420   20.7138  -16.4019 C   0  0  0  0  0  0  0  0  0  0  0  0
   -8.8386   21.0775  -15.0221 C   0  0  0  0  0  0  0  0  0  0  0  0
   -9.6135   20.7214  -13.8876 C   0  0  0  0  0  0  0  0  0  0  0  0
  -10.5919   20.7637  -16.7867 C   0  0  0  0  0  0  0  0  0  0  0  0
   -7.6719   21.8342  -14.8502 C   0  0  0  0  0  0  0  0  0  0  0  0
  -10.8863   18.3274  -20.4170 O   0  0  0  0  0  0  0  0  0  0  0  0
   -8.9962   20.6366  -10.0034 O   0  0  0  0  0  0  0  0  0  0  0  0
  -12.6904   18.9770  -13.7264 N   0  0  0  0  0  0  0  0  0  0  0  0
  -10.4058   19.6437  -20.4203 C   0  0  1  0  0  0  0  0  0  0  0  0
  -12.2349   18.5445  -14.8891 N   0  0  0  0  0  0  0  0  0  0  0  0
  -11.0539   19.0930  -15.1223 N   0  0  0  0  0  0  0  0  0  0  0  0
   -9.1795   21.1585  -12.6088 C   0  0  0  0  0  0  0  0  0  0  0  0
  -10.0124   20.7418  -11.1059 S   0  0  1  0  0  6  0  0  0  0  0  0
  -10.7085   19.4156  -11.2302 O   0  0  0  0  0  0  0  0  0  0  0  0
  -11.1561   21.9734  -10.6963 N   0  0  0  0  0  0  0  0  0  0  0  0
  -10.8145   19.8704  -14.0467 C   0  0  0  0  0  0  0  0  0  0  0  0
  -11.8334   19.8137  -13.1685 N   0  0  0  0  0  0  0  0  0  0  0  0
   -8.0457   21.9016  -12.5023 N   0  0  0  0  0  0  0  0  0  0  0  0
   -7.2942   22.2441  -13.5767 C   0  0  0  0  0  0  0  0  0  0  0  0
  -10.9680   20.4229  -18.0888 C   0  0  0  0  0  0  0  0  0  0  0  0
   -9.9979   20.0475  -19.0305 C   0  0  0  0  0  0  0  0  0  0  0  0
   -8.6492   19.9956  -18.6468 C   0  0  0  0  0  0  0  0  0  0  0  0
   -7.2269   20.2903  -17.0658 H   0  0  0  0  0  0  0  0  0  0  0  0
  -11.3530   21.0664  -16.0779 H   0  0  0  0  0  0  0  0  0  0  0  0
   -7.0690   22.1247  -15.7022 H   0  0  0  0  0  0  0  0  0  0  0  0
  -11.8574   18.3795  -20.6180 H   0  0  0  0  0  0  0  0  0  0  0  0
  -13.6049   18.6989  -13.3077 H   0  0  0  0  0  0  0  0  0  0  0  0
   -9.5302   19.7024  -21.1014 H   0  0  0  0  0  0  0  0  0  0  0  0
  -11.1774   20.3382  -20.8245 H   0  0  0  0  0  0  0  0  0  0  0  0
  -10.8908   22.3518   -9.7608 H   0  0  0  0  0  0  0  0  0  0  0  0
  -12.0796   21.5014  -10.5722 H   0  0  0  0  0  0  0  0  0  0  0  0
   -6.4000   22.8374  -13.4402 H   0  0  0  0  0  0  0  0  0  0  0  0
  -12.0152   20.4537  -18.3632 H   0  0  0  0  0  0  0  0  0  0  0  0
   -7.8895   19.6907  -19.3560 H   0  0  0  0  0  0  0  0  0  0  0  0
  1  2  2  0
  2  3  1  0
  3  4  1  0
  2  5  1  0
  3  6  2  0
  7 10  1  0
  9 11  1  0
 11 12  2  0
  4 13  2  0
  8 14  2  0
 13 14  1  0
 14 15  2  0
 14 16  1  1
  4 17  1  0
 12 17  1  0
 17 18  2  0
  9 18  1  0
 13 19  1  0
 19 20  2  0
  6 20  1  0
  5 21  2  0
 21 22  1  0
 10 22  1  0
  1 23  1  0
 22 23  2  0
  1 24  1  0
  5 25  1  0
  6 26  1  0
  7 27  1  0
  9 28  1  0
 10 29  1  6
 10 30  1  0
 16 31  1  0
 16 32  1  0
 20 33  1  0
 21 34  1  0
 23 35  1  0
M  END
