7R6J_2I7_B_901
     RDKit          3D

 63 66  0  0  0  0  0  0  0  0999 V2000
  -28.3004  -34.1607  -60.1640 N   0  0  0  0  0  0  0  0  0  0  0  0
  -29.3200  -25.3625  -57.6336 N   0  0  0  0  0  0  0  0  0  0  0  0
  -29.7659  -34.2378  -60.3561 C   0  0  2  0  0  0  0  0  0  0  0  0
  -27.9608  -33.3316  -58.9688 C   0  0  2  0  0  0  0  0  0  0  0  0
  -26.5011  -33.5875  -58.5191 C   0  0  1  0  0  0  0  0  0  0  0  0
  -27.6632  -33.6374  -61.3964 C   0  0  2  0  0  0  0  0  0  0  0  0
  -26.7370  -32.4988  -61.0601 C   0  0  0  0  0  0  0  0  0  0  0  0
  -25.9877  -30.2102  -61.4284 C   0  0  0  0  0  0  0  0  0  0  0  0
  -27.7592  -29.7122  -59.8486 C   0  0  0  0  0  0  0  0  0  0  0  0
  -28.4974  -31.5176  -58.2487 C   0  0  2  0  0  0  0  0  0  0  0  0
  -28.8827  -27.7286  -58.1994 C   0  0  0  0  0  0  0  0  0  0  0  0
  -30.4992  -24.7318  -55.6647 C   0  0  0  0  0  0  0  0  0  0  0  0
  -30.6302  -26.0817  -55.3471 C   0  0  0  0  0  0  0  0  0  0  0  0
  -28.2476  -27.3796  -59.4075 C   0  0  0  0  0  0  0  0  0  0  0  0
  -24.7559  -31.6694  -59.9294 C   0  0  0  0  0  0  0  0  0  0  0  0
  -28.9418  -33.5820  -57.7712 C   0  0  2  0  0  0  0  0  0  0  0  0
  -26.1182  -28.9115  -62.1783 C   0  0  2  0  0  0  0  0  0  0  0  0
  -27.6892  -28.3665  -60.2382 C   0  0  0  0  0  0  0  0  0  0  0  0
  -28.3872  -30.0764  -58.6491 C   0  0  0  0  0  0  0  0  0  0  0  0
  -28.9536  -29.0857  -57.8361 C   0  0  0  0  0  0  0  0  0  0  0  0
  -29.4563  -26.6807  -57.3163 C   0  0  0  0  0  0  0  0  0  0  0  0
  -29.8266  -24.3891  -56.8345 C   0  0  0  0  0  0  0  0  0  0  0  0
  -29.6609  -34.9363  -57.8924 C   0  0  1  0  0  0  0  0  0  0  0  0
  -24.9153  -30.4284  -60.5500 C   0  0  0  0  0  0  0  0  0  0  0  0
  -25.6553  -32.7053  -60.1901 C   0  0  0  0  0  0  0  0  0  0  0  0
  -30.4374  -35.0441  -59.2247 C   0  0  1  0  0  0  0  0  0  0  0  0
  -26.9058  -31.2444  -61.6654 C   0  0  0  0  0  0  0  0  0  0  0  0
  -27.0533  -28.0223  -61.4845 N   0  0  0  0  0  0  0  0  0  0  0  0
  -30.1109  -27.0257  -56.1730 N   0  0  0  0  0  0  0  0  0  0  0  0
  -29.9060  -32.5610  -57.7140 O   0  0  0  0  0  0  0  0  0  0  0  0
  -28.7195  -35.9740  -57.7941 O   0  0  0  0  0  0  0  0  0  0  0  0
  -31.7487  -34.5821  -59.0325 O   0  0  0  0  0  0  0  0  0  0  0  0
  -25.8151  -34.3583  -59.4667 O   0  0  0  0  0  0  0  0  0  0  0  0
  -30.0194  -34.7452  -61.3130 H   0  0  0  0  0  0  0  0  0  0  0  0
  -30.1961  -33.2096  -60.4081 H   0  0  0  0  0  0  0  0  0  0  0  0
  -28.0251  -32.2521  -59.2382 H   0  0  0  0  0  0  0  0  0  0  0  0
  -25.9688  -32.6259  -58.3662 H   0  0  0  0  0  0  0  0  0  0  0  0
  -26.4828  -34.1035  -57.5348 H   0  0  0  0  0  0  0  0  0  0  0  0
  -28.4115  -33.2408  -62.1115 H   0  0  0  0  0  0  0  0  0  0  0  0
  -27.1243  -34.4446  -61.9427 H   0  0  0  0  0  0  0  0  0  0  0  0
  -27.3411  -30.4771  -60.4905 H   0  0  0  0  0  0  0  0  0  0  0  0
  -28.4844  -32.1578  -59.1574 H   0  0  0  0  0  0  0  0  0  0  0  0
  -29.4500  -31.6891  -57.7053 H   0  0  0  0  0  0  0  0  0  0  0  0
  -27.6598  -31.8159  -57.5844 H   0  0  0  0  0  0  0  0  0  0  0  0
  -30.9106  -23.9662  -55.0186 H   0  0  0  0  0  0  0  0  0  0  0  0
  -31.1422  -26.3795  -54.4435 H   0  0  0  0  0  0  0  0  0  0  0  0
  -28.1754  -26.3392  -59.6931 H   0  0  0  0  0  0  0  0  0  0  0  0
  -23.9225  -31.8334  -59.2582 H   0  0  0  0  0  0  0  0  0  0  0  0
  -28.3949  -33.5908  -56.7994 H   0  0  0  0  0  0  0  0  0  0  0  0
  -26.4483  -29.0680  -63.2270 H   0  0  0  0  0  0  0  0  0  0  0  0
  -25.1192  -28.4288  -62.2247 H   0  0  0  0  0  0  0  0  0  0  0  0
  -29.4446  -29.3815  -56.9180 H   0  0  0  0  0  0  0  0  0  0  0  0
  -29.7060  -23.3490  -57.1077 H   0  0  0  0  0  0  0  0  0  0  0  0
  -30.3755  -35.0231  -57.0390 H   0  0  0  0  0  0  0  0  0  0  0  0
  -24.1923  -29.6460  -60.3610 H   0  0  0  0  0  0  0  0  0  0  0  0
  -25.5057  -33.6707  -59.7224 H   0  0  0  0  0  0  0  0  0  0  0  0
  -30.4748  -36.1180  -59.5247 H   0  0  0  0  0  0  0  0  0  0  0  0
  -27.7265  -31.0842  -62.3549 H   0  0  0  0  0  0  0  0  0  0  0  0
  -27.1160  -27.0342  -61.8204 H   0  0  0  0  0  0  0  0  0  0  0  0
  -30.7518  -32.9485  -58.0646 H   0  0  0  0  0  0  0  0  0  0  0  0
  -29.2339  -36.8220  -57.7030 H   0  0  0  0  0  0  0  0  0  0  0  0
  -31.9600  -33.9891  -59.7978 H   0  0  0  0  0  0  0  0  0  0  0  0
  -24.8492  -34.1779  -59.3212 H   0  0  0  0  0  0  0  0  0  0  0  0
  1  3  1  0
  1  4  1  0
  4  5  1  0
  1  6  1  0
  6  7  1  0
 12 13  1  0
 11 14  2  0
  4 16  1  0
  8 17  1  0
 14 18  1  0
  9 18  2  0
  9 19  1  0
 10 19  1  0
 11 20  1  0
 19 20  2  0
  2 21  2  0
 11 21  1  0
 12 22  2  0
  2 22  1  0
 16 23  1  0
  8 24  1  0
 15 24  2  0
  7 25  2  0
 15 25  1  0
 23 26  1  0
  3 26  1  0
  7 27  1  0
  8 27  2  0
 17 28  1  0
 18 28  1  0
 13 29  2  0
 21 29  1  0
 16 30  1  0
 23 31  1  0
 26 32  1  0
  5 33  1  0
  3 34  1  6
  3 35  1  0
  4 36  1  6
  5 37  1  1
  5 38  1  0
  6 39  1  6
  6 40  1  0
  9 41  1  0
 10 42  1  6
 10 43  1  0
 10 44  1  0
 12 45  1  0
 13 46  1  0
 14 47  1  0
 15 48  1  0
 16 49  1  1
 17 50  1  6
 17 51  1  0
 20 52  1  0
 22 53  1  0
 23 54  1  1
 24 55  1  0
 25 56  1  0
 26 57  1  6
 27 58  1  0
 28 59  1  0
 30 60  1  0
 31 61  1  0
 32 62  1  0
 33 63  1  0
M  END
