7P1F_KFN_B_501
     RDKit          3D

 31 31  0  0  0  0  0  0  0  0999 V2000
    4.4573   -7.5199    4.1763 C   0  0  0  0  0  0  0  0  0  0  0  0
    3.4503   -7.8806    1.9622 C   0  0  0  0  0  0  0  0  0  0  0  0
    3.4271   -8.5221    0.5950 C   0  0  2  0  0  0  0  0  0  0  0  0
    4.8499   -8.9054    0.1282 C   0  0  1  0  0  0  0  0  0  0  0  0
    5.5517   -9.7018    1.2534 C   0  0  1  0  0  0  0  0  0  0  0  0
    7.0053  -10.1580    0.9388 C   0  0  2  0  0  0  0  0  0  0  0  0
    8.0790   -9.8645    2.0233 C   0  0  2  0  0  0  0  0  0  0  0  0
    7.4819   -9.5899    3.4125 C   0  0  0  0  0  0  0  0  0  0  0  0
    4.8020   -9.6347   -1.0732 O   0  0  0  0  0  0  0  0  0  0  0  0
    3.6196   -8.0301    5.1629 O   0  0  0  0  0  0  0  0  0  0  0  0
    5.2153   -6.5481    4.4438 O   0  0  0  0  0  0  0  0  0  0  0  0
    2.8081   -7.6729   -0.3380 O   0  0  0  0  0  0  0  0  0  0  0  0
    5.5221   -8.9481    2.4678 O   0  0  0  0  0  0  0  0  0  0  0  0
    4.4450   -8.1259    2.8334 C   0  0  0  0  0  0  0  0  0  0  0  0
    7.4284   -9.5988   -0.2796 O   0  0  0  0  0  0  0  0  0  0  0  0
    8.9074   -8.7939    1.6465 O   0  0  0  0  0  0  0  0  0  0  0  0
    6.6770  -10.6645    3.8177 O   0  0  0  0  0  0  0  0  0  0  0  0
    2.6129   -7.2543    2.2467 H   0  0  0  0  0  0  0  0  0  0  0  0
    2.8129   -9.4452    0.6760 H   0  0  0  0  0  0  0  0  0  0  0  0
    5.4076   -7.9638   -0.0548 H   0  0  0  0  0  0  0  0  0  0  0  0
    4.9533  -10.6229    1.4362 H   0  0  0  0  0  0  0  0  0  0  0  0
    6.9756  -11.2678    0.8211 H   0  0  0  0  0  0  0  0  0  0  0  0
    8.7006  -10.7867    2.1220 H   0  0  0  0  0  0  0  0  0  0  0  0
    8.2854   -9.4151    4.1628 H   0  0  0  0  0  0  0  0  0  0  0  0
    6.8463   -8.6798    3.3707 H   0  0  0  0  0  0  0  0  0  0  0  0
    4.3027  -10.4745   -0.8961 H   0  0  0  0  0  0  0  0  0  0  0  0
    3.6103   -7.6316    6.0943 H   0  0  0  0  0  0  0  0  0  0  0  0
    3.3329   -6.8300   -0.3713 H   0  0  0  0  0  0  0  0  0  0  0  0
    6.9553  -10.0846   -1.0053 H   0  0  0  0  0  0  0  0  0  0  0  0
    9.5599   -9.1465    0.9865 H   0  0  0  0  0  0  0  0  0  0  0  0
    7.2904  -11.3776    4.1352 H   0  0  0  0  0  0  0  0  0  0  0  0
  2  3  1  0
  3  4  1  0
  4  5  1  0
  5  6  1  0
  6  7  1  0
  7  8  1  0
  4  9  1  0
  1 10  1  0
  1 11  2  0
  3 12  1  0
  5 13  1  0
  1 14  1  0
  2 14  2  0
 13 14  1  0
  6 15  1  0
  7 16  1  0
  8 17  1  0
  2 18  1  0
  3 19  1  6
  4 20  1  1
  5 21  1  6
  6 22  1  1
  7 23  1  6
  8 24  1  0
  8 25  1  0
  9 26  1  0
 10 27  1  0
 12 28  1  0
 15 29  1  0
 16 30  1  0
 17 31  1  0
M  END
