7TSF_H4B_A_802
     RDKit          3D

 17 18  0  0  0  0  0  0  0  0999 V2000
   14.0303   -2.2324   25.0335 N   0  0  0  0  0  0  0  0  0  0  0  0
   12.9446   -2.7378   25.6884 C   0  0  0  0  0  0  0  0  0  0  0  0
   12.9823   -3.9988   26.3449 N   0  0  0  0  0  0  0  0  0  0  0  0
   11.8144   -2.0001   25.6987 N   0  0  0  0  0  0  0  0  0  0  0  0
   11.7222   -0.7986   25.0932 C   0  0  0  0  0  0  0  0  0  0  0  0
   10.6507   -0.1197   25.1138 O   0  0  0  0  0  0  0  0  0  0  0  0
   12.8077   -0.2677   24.4248 C   0  0  0  0  0  0  0  0  0  0  0  0
   13.9674   -1.0362   24.4204 C   0  0  0  0  0  0  0  0  0  0  0  0
   12.7684    0.9933   23.7689 N   0  0  0  0  0  0  0  0  0  0  0  0
   15.0831   -0.4864   23.7313 N   0  0  0  0  0  0  0  0  0  0  0  0
   13.8926    1.4243   22.9635 C   0  0  2  0  0  0  0  0  0  0  0  0
   15.1505    0.9577   23.6044 C   0  0  0  0  0  0  0  0  0  0  0  0
   13.8613    2.9028   22.6867 C   0  0  1  0  0  0  0  0  0  0  0  0
   14.2296    3.5413   23.8808 O   0  0  0  0  0  0  0  0  0  0  0  0
   14.8318    3.3366   21.6441 C   0  0  2  0  0  0  0  0  0  0  0  0
   14.2534    4.6135   21.0229 C   0  0  0  0  0  0  0  0  0  0  0  0
   14.9581    2.4332   20.5871 O   0  0  0  0  0  0  0  0  0  0  0  0
  1  2  2  0
  2  3  1  0
  2  4  1  0
  4  5  1  0
  5  6  2  0
  5  7  1  0
  1  8  1  0
  7  8  2  0
  7  9  1  0
  8 10  1  0
 11  9  1  1
 12 10  1  6
 11 12  1  0
 11 13  1  0
 13 14  1  1
 13 15  1  0
 16 15  1  1
 15 17  1  6
M  END
$$$$
