
     RDKit          3D

 22 25  0  0  0  0  0  0  0  0999 V2000
    4.9881   30.6913   -6.7100 C   0  0  1  0  0  0  0  0  0  0  0  0
    2.2192   30.5549  -10.2206 C   0  0  0  0  0  0  0  0  0  0  0  0
    3.2661   28.6321   -9.2139 C   0  0  0  0  0  0  0  0  0  0  0  0
    3.2415   30.0270   -9.4323 C   0  0  0  0  0  0  0  0  0  0  0  0
    7.3740   30.1550   -6.3695 O   0  0  0  0  0  0  0  0  0  0  0  0
    7.0978   30.3814   -3.5151 C   0  0  0  0  0  0  0  0  0  0  0  0
    3.9067   31.6554   -4.7015 C   0  0  0  0  0  0  0  0  0  0  0  0
    5.2996   31.0514   -8.1685 C   0  0  0  0  0  0  0  0  0  0  0  0
    4.0679   31.1225   -9.0210 C   0  0  0  0  0  0  0  0  0  0  0  0
    1.2315   29.7537  -10.7928 C   0  0  0  0  0  0  0  0  0  0  0  0
    1.2674   28.3799  -10.5696 C   0  0  0  0  0  0  0  0  0  0  0  0
    2.2750   27.8216   -9.7869 C   0  0  0  0  0  0  0  0  0  0  0  0
    6.2842   30.4457   -5.8876 C   0  0  0  0  0  0  0  0  0  0  0  0
    4.7338   30.6088   -3.9480 C   0  0  2  0  0  0  0  0  0  0  0  0
    5.0014   30.9437   -2.4867 C   0  0  0  0  0  0  0  0  0  0  0  0
    6.3217   30.2222   -2.2126 C   0  0  0  0  0  0  0  0  0  0  0  0
    3.5172   32.2657   -9.5675 C   0  0  0  0  0  0  0  0  0  0  0  0
    0.2620   30.2884  -11.5463 F   0  0  0  0  0  0  0  0  0  0  0  0
    6.0691   30.5096   -4.5233 N   0  0  0  0  0  0  0  0  0  0  0  0
    4.2148   31.7572   -6.0450 N   0  0  0  0  0  0  0  0  0  0  0  0
    2.4077   31.9133  -10.2858 N   0  0  0  0  0  0  0  0  0  0  0  0
    2.9659   32.2756   -4.2196 O   0  0  0  0  0  0  0  0  0  0  0  0
  2  4  4  0
  3  4  4  0
  1  8  1  6
  4  9  4  0
  8  9  1  0
  2 10  4  0
 10 11  4  0
 11 12  4  0
  3 12  4  0
  1 13  1  0
  5 13  2  0
  7 14  1  0
 14 15  1  1
  6 16  1  0
 15 16  1  0
  9 17  4  0
 10 18  1  0
 13 19  1  0
 14 19  1  0
  6 19  1  0
  1 20  1  0
  7 20  1  0
  2 21  4  0
 17 21  4  0
  7 22  2  0
M  END
