7L81_UD4_AAA_301
     RDKit          3D

 38 40  0  0  0  0  0  0  0  0999 V2000
  -18.2804  -23.0432   19.9415 N   0  0  0  0  0  0  0  0  0  0  0  0
  -17.0474  -23.3751   20.3687 C   0  0  0  0  0  0  0  0  0  0  0  0
  -16.0633  -23.5164   19.4624 N   0  0  0  0  0  0  0  0  0  0  0  0
  -18.5274  -22.8569   18.6455 C   0  0  0  0  0  0  0  0  0  0  0  0
  -17.5411  -22.9958   17.7094 C   0  0  0  0  0  0  0  0  0  0  0  0
  -16.2725  -23.3354   18.1307 C   0  0  0  0  0  0  0  0  0  0  0  0
  -15.2465  -25.0013    9.1813 O   0  0  0  0  0  0  0  0  0  0  0  0
  -14.1939  -24.4892    9.6732 C   0  0  0  0  0  0  0  0  0  0  0  0
  -12.8781  -25.1869    9.6009 C   0  0  0  0  0  0  0  0  0  0  0  0
  -14.2152  -23.2228   10.3192 N   0  0  0  0  0  0  0  0  0  0  0  0
  -15.3308  -22.7807   11.1444 C   0  0  2  0  0  0  0  0  0  0  0  0
  -15.6567  -21.3576   10.7748 C   0  0  1  0  0  0  0  0  0  0  0  0
  -16.4875  -21.3795    9.6433 O   0  0  0  0  0  0  0  0  0  0  0  0
  -16.2252  -20.5429   11.8948 C   0  0  2  0  0  0  0  0  0  0  0  0
  -15.3018  -19.4684   12.2923 N   0  0  0  0  0  0  0  0  0  0  0  0
  -16.7320  -21.3058   13.0615 C   0  0  1  0  0  0  0  0  0  0  0  0
  -18.2391  -21.5089   12.9401 C   0  0  0  0  0  0  0  0  0  0  0  0
  -16.1848  -22.5311   13.2983 O   0  0  0  0  0  0  0  0  0  0  0  0
  -15.0453  -22.8505   12.6092 C   0  0  2  0  0  0  0  0  0  0  0  0
  -13.9223  -22.1691   13.0184 O   0  0  0  0  0  0  0  0  0  0  0  0
  -13.4316  -22.7179   14.5306 P   0  0  1  0  0  0  0  0  0  0  0  0
  -14.1283  -21.8742   15.5737 O   0  0  0  0  0  0  0  0  0  0  0  0
  -13.9313  -24.3298   14.7856 O   0  0  0  0  0  0  0  0  0  0  0  0
  -11.7635  -22.6582   14.7525 O   0  0  0  0  0  0  0  0  0  0  0  0
  -11.4050  -21.7531   16.1566 P   0  0  1  0  0  0  0  0  0  0  0  0
   -9.7814  -21.2528   16.0231 O   0  0  0  0  0  0  0  0  0  0  0  0
  -12.3065  -20.5486   16.1076 O   0  0  0  0  0  0  0  0  0  0  0  0
  -11.5583  -22.6686   17.5442 O   0  0  0  0  0  0  0  0  0  0  0  0
  -12.1635  -23.9112   17.3233 C   0  0  0  0  0  0  0  0  0  0  0  0
  -12.8780  -24.2818   18.6013 C   0  0  1  0  0  0  0  0  0  0  0  0
  -13.7827  -23.3109   18.9879 O   0  0  0  0  0  0  0  0  0  0  0  0
  -13.7713  -25.4929   18.4282 C   0  0  1  0  0  0  0  0  0  0  0  0
  -13.0490  -26.6795   18.4024 O   0  0  0  0  0  0  0  0  0  0  0  0
  -14.6057  -25.3747   19.6930 C   0  0  1  0  0  0  0  0  0  0  0  0
  -13.9079  -25.8606   20.8016 O   0  0  0  0  0  0  0  0  0  0  0  0
  -14.6974  -23.8738   19.8335 C   0  0  2  0  0  0  0  0  0  0  0  0
  -16.8021  -23.5532   21.5856 O   0  0  0  0  0  0  0  0  0  0  0  0
  -19.6793  -22.5450   18.2276 O   0  0  0  0  0  0  0  0  0  0  0  0
  1  2  1  0
  2  3  1  0
  1  4  1  0
  4  5  1  0
  3  6  1  0
  5  6  2  0
  7  8  2  0
  8  9  1  0
  8 10  1  0
 11 10  1  6
 11 12  1  0
 12 13  1  6
 12 14  1  0
 14 15  1  1
 14 16  1  0
 16 17  1  6
 16 18  1  0
 11 19  1  0
 18 19  1  0
 19 20  1  6
 20 21  1  0
 21 22  2  0
 21 23  1  1
 21 24  1  0
 24 25  1  0
 25 26  1  6
 25 27  2  0
 25 28  1  0
 28 29  1  0
 30 29  1  6
 30 31  1  0
 30 32  1  0
 32 33  1  1
 32 34  1  0
 34 35  1  1
 36  3  1  6
 31 36  1  0
 34 36  1  0
  2 37  2  0
  4 38  2  0
M  END
$$$$
