
     RDKit          3D

 29 32  0  0  0  0  0  0  0  0999 V2000
   18.7246   -8.4980   13.1961 C   0  0  0  0  0  0  0  0  0  0  0  0
   17.4517   -7.8641   13.1804 O   0  0  0  0  0  0  0  0  0  0  0  0
   17.3347   -6.7243   12.4352 C   0  0  0  0  0  0  0  0  0  0  0  0
   17.9544   -5.6003   12.9878 C   0  0  0  0  0  0  0  0  0  0  0  0
   17.9126   -4.3664   12.3340 C   0  0  0  0  0  0  0  0  0  0  0  0
   16.6694   -6.6062   11.2150 C   0  0  0  0  0  0  0  0  0  0  0  0
   16.6258   -5.3726   10.5558 C   0  0  0  0  0  0  0  0  0  0  0  0
   17.2483   -4.2484   11.1109 C   0  0  0  0  0  0  0  0  0  0  0  0
   17.1719   -2.9698   10.4322 C   0  0  0  0  0  0  0  0  0  0  0  0
   16.0434   -2.1026   10.2833 C   0  0  0  0  0  0  0  0  0  0  0  0
   14.6923   -2.0864   10.6699 C   0  0  0  0  0  0  0  0  0  0  0  0
   14.1200   -3.1234   11.4166 N   0  0  0  0  0  0  0  0  0  0  0  0
   12.7098   -3.3959   11.1319 C   0  0  0  0  0  0  0  0  0  0  0  0
   11.8552   -2.9978   12.3406 C   0  0  0  0  0  0  0  0  0  0  0  0
   11.7869   -1.5783   12.4777 O   0  0  0  0  0  0  0  0  0  0  0  0
   13.9400   -1.0294   10.2802 N   0  0  0  0  0  0  0  0  0  0  0  0
   14.5128   -0.0390    9.5703 C   0  0  0  0  0  0  0  0  0  0  0  0
   15.7855    0.0583    9.1764 N   0  0  0  0  0  0  0  0  0  0  0  0
   16.4951   -1.0085    9.5640 C   0  0  0  0  0  0  0  0  0  0  0  0
   17.8180   -1.1456    9.2862 O   0  0  0  0  0  0  0  0  0  0  0  0
   18.2385   -2.3391    9.8056 C   0  0  0  0  0  0  0  0  0  0  0  0
   19.6485   -2.6430    9.5651 C   0  0  0  0  0  0  0  0  0  0  0  0
   20.4935   -1.7334    8.9160 C   0  0  0  0  0  0  0  0  0  0  0  0
   21.8416   -2.0382    8.6800 C   0  0  0  0  0  0  0  0  0  0  0  0
   22.3686   -3.2593    9.0958 C   0  0  0  0  0  0  0  0  0  0  0  0
   23.6583   -3.6800    8.9280 O   0  0  0  0  0  0  0  0  0  0  0  0
   24.6534   -3.0292    9.7078 C   0  0  0  0  0  0  0  0  0  0  0  0
   21.5375   -4.1674    9.7519 C   0  0  0  0  0  0  0  0  0  0  0  0
   20.1927   -3.8636    9.9867 C   0  0  0  0  0  0  0  0  0  0  0  0
  1  2  1  0
  2  3  1  0
  3  4  4  0
  4  5  4  0
  3  6  4  0
  6  7  4  0
  5  8  4  0
  7  8  4  0
  8  9  1  0
  9 10  4  0
 10 11  4  0
 11 12  1  0
 12 13  1  0
 13 14  1  0
 14 15  1  0
 11 16  4  0
 16 17  4  0
 17 18  4  0
 10 19  4  0
 18 19  4  0
 19 20  4  0
  9 21  4  0
 20 21  4  0
 21 22  1  0
 22 23  4  0
 23 24  4  0
 24 25  4  0
 25 26  1  0
 26 27  1  0
 25 28  4  0
 22 29  4  0
 28 29  4  0
M  END
