7BCP_GCO_A_401
     RDKit          3D

 25 24  0  0  0  0  0  0  0  0999 V2000
  -17.5058    2.4137   -4.3281 C   0  0  0  0  0  0  0  0  0  0  0  0
  -17.8747    3.2866   -3.1621 C   0  0  1  0  0  0  0  0  0  0  0  0
  -19.0530    4.2467   -3.4934 C   0  0  2  0  0  0  0  0  0  0  0  0
  -19.9033    3.8579   -4.7397 C   0  0  1  0  0  0  0  0  0  0  0  0
  -20.8523    2.6446   -4.5405 C   0  0  1  0  0  0  0  0  0  0  0  0
  -21.6779    2.7151   -3.2376 C   0  0  2  0  0  0  0  0  0  0  0  0
  -16.3725    2.5310   -4.8668 O   0  0  0  0  0  0  0  0  0  0  0  0
  -18.4235    1.5010   -4.8408 O   0  0  0  0  0  0  0  0  0  0  0  0
  -18.1623    2.4900   -2.0427 O   0  0  0  0  0  0  0  0  0  0  0  0
  -18.5360    5.5384   -3.7006 O   0  0  0  0  0  0  0  0  0  0  0  0
  -20.6668    4.9709   -5.1385 O   0  0  0  0  0  0  0  0  0  0  0  0
  -21.7052    2.5178   -5.6526 O   0  0  0  0  0  0  0  0  0  0  0  0
  -22.7849    1.8581   -3.3137 O   0  0  0  0  0  0  0  0  0  0  0  0
  -16.9779    3.9064   -2.9241 H   0  0  0  0  0  0  0  0  0  0  0  0
  -19.7331    4.2824   -2.6116 H   0  0  0  0  0  0  0  0  0  0  0  0
  -19.2047    3.5839   -5.5658 H   0  0  0  0  0  0  0  0  0  0  0  0
  -20.2468    1.7180   -4.5111 H   0  0  0  0  0  0  0  0  0  0  0  0
  -22.0472    3.7502   -3.0779 H   0  0  0  0  0  0  0  0  0  0  0  0
  -21.0559    2.4396   -2.3584 H   0  0  0  0  0  0  0  0  0  0  0  0
  -19.4177    1.6234   -4.6904 H   0  0  0  0  0  0  0  0  0  0  0  0
  -19.1188    2.6378   -1.8208 H   0  0  0  0  0  0  0  0  0  0  0  0
  -17.6484    5.5746   -3.2563 H   0  0  0  0  0  0  0  0  0  0  0  0
  -20.1026    5.7782   -5.0119 H   0  0  0  0  0  0  0  0  0  0  0  0
  -22.2623    3.3380   -5.7056 H   0  0  0  0  0  0  0  0  0  0  0  0
  -22.4291    0.9314   -3.2887 H   0  0  0  0  0  0  0  0  0  0  0  0
  1  2  1  0
  2  3  1  0
  3  4  1  0
  4  5  1  0
  5  6  1  0
  1  7  2  0
  1  8  1  0
  2  9  1  0
  3 10  1  0
  4 11  1  0
  5 12  1  0
  6 13  1  0
  2 14  1  1
  3 15  1  1
  4 16  1  6
  5 17  1  1
  6 18  1  1
  6 19  1  0
  8 20  1  0
  9 21  1  0
 10 22  1  0
 11 23  1  0
 12 24  1  0
 13 25  1  0
M  END
