1U1C_BAU_F_5051
     RDKit          3D

 36 37  0  0  0  0  0  0  0  0999 V2000
   17.0355  139.6994   45.9736 O   0  0  0  0  0  0  0  0  0  0  0  0
   17.2136  138.3352   46.0437 C   0  0  0  0  0  0  0  0  0  0  0  0
   16.7328  137.3933   45.0118 C   0  0  0  0  0  0  0  0  0  0  0  0
   15.9267  136.3708   45.3030 O   0  0  0  0  0  0  0  0  0  0  0  0
   15.0951  136.8362   46.2431 C   0  0  0  0  0  0  0  0  0  0  0  0
   13.8424  136.4053   46.5370 N   0  0  0  0  0  4  0  0  0  0  0  0
   13.5457  135.0481   46.9684 C   0  0  0  0  0  0  0  0  0  0  0  0
   14.4115  134.1715   47.1343 O   0  0  0  0  0  0  0  0  0  0  0  0
   12.1833  134.7423   47.2453 N   0  0  0  0  0  4  0  0  0  0  0  0
   11.1460  135.7049   47.1168 C   0  0  0  0  0  0  0  0  0  0  0  0
    9.9808  135.3357   47.3468 O   0  0  0  0  0  0  0  0  0  0  0  0
   12.7784  137.3685   46.4147 C   0  0  0  0  0  0  0  0  0  0  0  0
   11.4363  137.0546   46.7024 C   0  0  0  0  0  0  0  0  0  0  0  0
   10.3267  138.1708   46.6387 C   0  0  0  0  0  0  0  0  0  0  0  0
    8.9250  137.5974   46.4390 C   0  0  0  0  0  0  0  0  0  0  0  0
    8.2679  137.6687   45.1451 C   0  0  0  0  0  0  0  0  0  0  0  0
    6.9490  137.1044   44.9689 C   0  0  0  0  0  0  0  0  0  0  0  0
    6.2986  136.4735   46.0932 C   0  0  0  0  0  0  0  0  0  0  0  0
    6.9577  136.4083   47.3734 C   0  0  0  0  0  0  0  0  0  0  0  0
    8.2616  136.9647   47.5535 C   0  0  0  0  0  0  0  0  0  0  0  0
   17.4296  140.1175   46.7551 H   0  0  0  0  0  0  0  0  0  0  0  0
   18.2705  138.1819   46.1090 H   0  0  0  0  0  0  0  0  0  0  0  0
   16.5765  138.0848   46.8661 H   0  0  0  0  0  0  0  0  0  0  0  0
   16.2147  137.9845   44.2859 H   0  0  0  0  0  0  0  0  0  0  0  0
   17.6352  136.8921   44.7300 H   0  0  0  0  0  0  0  0  0  0  0  0
   15.6383  136.7354   47.1595 H   0  0  0  0  0  0  0  0  0  0  0  0
   14.8421  137.7705   45.7872 H   0  0  0  0  0  0  0  0  0  0  0  0
   11.9514  133.8308   47.5364 H   0  0  0  0  0  0  0  0  0  0  0  0
   13.0087  138.3255   46.1044 H   0  0  0  0  0  0  0  0  0  0  0  0
   10.3434  138.7228   47.5552 H   0  0  0  0  0  0  0  0  0  0  0  0
   10.5438  138.7948   45.7971 H   0  0  0  0  0  0  0  0  0  0  0  0
    8.7440  138.1231   44.3502 H   0  0  0  0  0  0  0  0  0  0  0  0
    6.4782  137.1519   44.0518 H   0  0  0  0  0  0  0  0  0  0  0  0
    5.3568  136.0671   45.9795 H   0  0  0  0  0  0  0  0  0  0  0  0
    6.4825  135.9546   48.1693 H   0  0  0  0  0  0  0  0  0  0  0  0
    8.7255  136.9143   48.4740 H   0  0  0  0  0  0  0  0  0  0  0  0
  1  2  1  0
  2  3  1  0
  3  4  1  0
  4  5  1  0
  5  6  1  0
  6  7  4  0
  7  8  2  0
  7  9  4  0
  9 10  4  0
 10 11  2  0
  6 12  4  0
 10 13  4  0
 12 13  4  0
 13 14  1  0
 14 15  1  0
 15 16  4  0
 16 17  4  0
 17 18  4  0
 18 19  4  0
 15 20  4  0
 19 20  4  0
  1 21  1  0
  2 22  1  0
  2 23  1  0
  3 24  1  0
  3 25  1  0
  5 26  1  0
  5 27  1  0
  9 28  1  0
 12 29  1  0
 14 30  1  0
 14 31  1  0
 16 32  1  0
 17 33  1  0
 18 34  1  0
 19 35  1  0
 20 36  1  0
M  CHG  2   6   1   9   1
M  END
