@<TRIPOS>MOLECULE
1U1C_BAU_F_5051
 36 37 0 0 0
SMALL
GASTEIGER

@<TRIPOS>ATOM
      1 O          -1.7745    0.8613    4.9972 O.3     1  UNL1       -0.3927
      2 C          -0.5817    0.2612    4.5714 C.3     1  UNL1        0.0676
      3 C          -0.6335   -0.0141    3.0679 C.3     1  UNL1        0.0730
      4 O           0.5220   -0.7221    2.6588 O.3     1  UNL1       -0.3569
      5 C           1.5102    0.1599    2.1601 C.3     1  UNL1        0.1283
      6 N           1.2172    0.5237    0.7628 N.ar    1  UNL1       -0.2765
      7 C           0.9615    1.8188    0.3904 C.ar    1  UNL1        0.3311
      8 O           0.9803    2.7495    1.2422 O.2     1  UNL1       -0.2464
      9 N           0.6791    2.1148   -0.9075 N.ar    1  UNL1       -0.2746
     10 C           0.6426    1.1477   -1.8611 C.ar    1  UNL1        0.2574
     11 O           0.3652    1.4575   -3.0516 O.2     1  UNL1       -0.2674
     12 C           1.1944   -0.4684   -0.1749 C.ar    1  UNL1        0.0202
     13 C           0.9126   -0.1837   -1.5153 C.ar    1  UNL1        0.0376
     14 C           0.8392   -1.3010   -2.5266 C.3     1  UNL1        0.0041
     15 C          -0.5562   -1.8623   -2.5832 C.ar    1  UNL1       -0.0428
     16 C          -1.4861   -1.3645   -3.5117 C.ar    1  UNL1       -0.0583
     17 C          -2.7922   -1.8632   -3.5370 C.ar    1  UNL1       -0.0615
     18 C          -3.1813   -2.8550   -2.6325 C.ar    1  UNL1       -0.0617
     19 C          -2.2654   -3.3485   -1.6995 C.ar    1  UNL1       -0.0615
     20 C          -0.9581   -2.8530   -1.6710 C.ar    1  UNL1       -0.0583
     21 H          -1.7337    1.8103    4.7077 H       1  UNL1        0.2095
     22 H          -0.4548   -0.6994    5.1142 H       1  UNL1        0.0580
     23 H           0.2873    0.9116    4.8187 H       1  UNL1        0.0580
     24 H          -1.5161   -0.6558    2.8607 H       1  UNL1        0.0583
     25 H          -0.7975    0.9353    2.5068 H       1  UNL1        0.0583
     26 H           1.6424    1.0501    2.8165 H       1  UNL1        0.0801
     27 H           2.4872   -0.3684    2.1910 H       1  UNL1        0.0801
     28 H           0.4809    3.1062   -1.1758 H       1  UNL1        0.1734
     29 H           1.3903   -1.4939    0.1190 H       1  UNL1        0.0816
     30 H           1.1512   -0.9379   -3.5301 H       1  UNL1        0.0364
     31 H           1.5581   -2.1059   -2.2574 H       1  UNL1        0.0364
     32 H          -1.2006   -0.5918   -4.2144 H       1  UNL1        0.0620
     33 H          -3.5038   -1.4786   -4.2562 H       1  UNL1        0.0618
     34 H          -4.1931   -3.2388   -2.6526 H       1  UNL1        0.0618
     35 H          -2.5691   -4.1131   -0.9963 H       1  UNL1        0.0618
     36 H          -0.2607   -3.2392   -0.9381 H       1  UNL1        0.0620
@<TRIPOS>BOND
     1     1     2    1
     2     2     3    1
     3     3     4    1
     4     4     5    1
     5     5     6    1
     6     6     7   ar
     7     7     8    2
     8     7     9   ar
     9     9    10   ar
    10    10    11    2
    11     6    12   ar
    12    10    13   ar
    13    12    13   ar
    14    13    14    1
    15    14    15    1
    16    15    16   ar
    17    16    17   ar
    18    17    18   ar
    19    18    19   ar
    20    15    20   ar
    21    19    20   ar
    22     1    21    1
    23     2    22    1
    24     2    23    1
    25     3    24    1
    26     3    25    1
    27     5    26    1
    28     5    27    1
    29     9    28    1
    30    12    29    1
    31    14    30    1
    32    14    31    1
    33    16    32    1
    34    17    33    1
    35    18    34    1
    36    19    35    1
    37    20    36    1
