1G9V_RQ3_A_801
     RDKit          3D

 25 26  0  0  0  0  0  0  0  0999 V2000
   16.7640   19.0570   35.8131 C   0  0  0  0  0  0  0  0  0  0  0  0
   17.8275   18.4745   36.1464 O   0  0  0  0  0  0  0  0  0  0  0  0
   15.8011   18.4431   35.2949 O   0  0  0  0  0  0  0  0  0  0  0  0
   16.6665   20.5416   36.0188 C   0  0  2  0  0  0  0  0  0  0  0  0
   16.9314   21.2226   34.6763 C   0  0  0  0  0  0  0  0  0  0  0  0
   17.7270   21.0186   37.0374 C   0  0  0  0  0  0  0  0  0  0  0  0
   15.3150   20.8639   36.4399 O   0  0  0  0  0  0  0  0  0  0  0  0
   14.6943   20.5078   37.7451 C   0  0  0  0  0  0  0  0  0  0  0  0
   13.4364   21.0291   38.0372 C   0  0  0  0  0  0  0  0  0  0  0  0
   12.8103   20.7154   39.2252 C   0  0  0  0  0  0  0  0  0  0  0  0
   13.4198   19.8814   40.1389 C   0  0  0  0  0  0  0  0  0  0  0  0
   15.3193   19.6631   38.6679 C   0  0  0  0  0  0  0  0  0  0  0  0
   14.6722   19.3521   39.8715 C   0  0  0  0  0  0  0  0  0  0  0  0
   12.7404   19.5577   41.3559 C   0  0  0  0  0  0  0  0  0  0  0  0
   11.6204   18.5139   41.1827 C   0  0  0  0  0  0  0  0  0  0  0  0
   11.4942   17.9120   40.1173 O   0  0  0  0  0  0  0  0  0  0  0  0
   10.6599   18.5209   42.0983 N   0  0  0  0  0  0  0  0  0  0  0  0
    9.3407   18.8667   41.8852 C   0  0  0  0  0  0  0  0  0  0  0  0
    9.0068   19.8784   40.9700 C   0  0  0  0  0  0  0  0  0  0  0  0
    7.7095   20.3617   40.9186 C   0  0  0  0  0  0  0  0  0  0  0  0
    6.7485   19.8406   41.7751 C   0  0  0  0  0  0  0  0  0  0  0  0
    8.3679   18.3541   42.7291 C   0  0  0  0  0  0  0  0  0  0  0  0
    7.0859   18.8333   42.6779 C   0  0  0  0  0  0  0  0  0  0  0  0
    7.3457   21.4343   39.9409 C   0  0  0  0  0  0  0  0  0  0  0  0
    6.0501   18.2592   43.5961 C   0  0  0  0  0  0  0  0  0  0  0  0
  1  2  1  0
  1  3  2  0
  1  4  1  0
  4  5  1  6
  4  6  1  0
  4  7  1  0
  7  8  1  0
  8  9  2  0
  9 10  1  0
 10 11  2  0
  8 12  1  0
 11 13  1  0
 12 13  2  0
 11 14  1  0
 14 15  1  0
 15 16  2  0
 15 17  1  0
 17 18  1  0
 18 19  2  0
 19 20  1  0
 20 21  2  0
 18 22  1  0
 21 23  1  0
 22 23  2  0
 20 24  1  0
 23 25  1  0
M  END
