
     RDKit          3D

  8  8  0  0  0  0  0  0  0  0999 V2000
   14.2302   15.8725   47.9445 O   0  0  0  0  0  0  0  0  0  0  0  0
   15.2294   16.4581   47.0933 C   0  0  2  0  0  0  0  0  0  0  0  0
   15.4790   15.6433   45.8265 C   0  0  0  0  0  0  0  0  0  0  0  0
   15.5734   14.3178   46.0774 O   0  0  0  0  0  0  0  0  0  0  0  0
   16.4988   16.5849   47.9265 C   0  0  0  0  0  0  0  0  0  0  0  0
   15.9779   16.5714   49.3411 C   0  0  0  0  0  0  0  0  0  0  0  0
   14.8108   15.6213   49.2277 C   0  0  0  0  0  0  0  0  0  0  0  0
   15.6037   16.0527   44.6840 O   0  0  0  0  0  0  0  0  0  0  0  0
  1  2  1  0
  2  3  1  6
  3  4  1  0
  2  5  1  0
  5  6  1  0
  1  7  1  0
  6  7  1  0
  3  8  2  0
M  END
