7NXO_UU8_B_401
     RDKit          3D

 50 53  0  0  0  0  0  0  0  0999 V2000
    0.9351   -3.9585    3.8728 N   0  0  0  0  0  4  0  0  0  0  0  0
   -0.3849   -4.3255    3.9012 C   0  0  0  0  0  0  0  0  0  0  0  0
   -1.2929   -3.7478    3.0148 C   0  0  0  0  0  0  0  0  0  0  0  0
   -0.8335   -2.7936    2.1078 C   0  0  0  0  0  0  0  0  0  0  0  0
    0.4818   -2.4503    2.1023 N   0  0  0  0  0  4  0  0  0  0  0  0
    1.3637   -3.0217    2.9672 C   0  0  0  0  0  0  0  0  0  0  0  0
    1.8437   -4.2456    6.1507 C   0  0  0  0  0  0  0  0  0  0  0  0
    2.7510   -4.8417    7.0293 C   0  0  0  0  0  0  0  0  0  0  0  0
    3.7573   -6.0589    5.1753 C   0  0  0  0  0  0  0  0  0  0  0  0
    7.0775   -7.0978    4.8847 C   0  0  0  0  0  0  0  0  0  0  0  0
    8.5884   -5.9222    3.4083 C   0  0  0  0  0  0  0  0  0  0  0  0
    6.1883   -5.7968    3.0283 C   0  0  0  0  0  0  0  0  0  0  0  0
    5.0467   -5.3124    2.1767 C   0  0  0  0  0  0  0  0  0  0  0  0
    7.5019   -5.4455    2.6716 C   0  0  0  0  0  0  0  0  0  0  0  0
    8.3772   -6.7560    4.5066 C   0  0  0  0  0  0  0  0  0  0  0  0
    5.9759   -6.6011    4.1766 C   0  0  0  0  0  0  0  0  0  0  0  0
    4.6939   -6.9495    4.6260 O   0  0  0  0  0  0  0  0  0  0  0  0
    2.8231   -5.4787    4.3092 C   0  0  0  0  0  0  0  0  0  0  0  0
    3.7052   -5.7524    6.5561 C   0  0  0  0  0  0  0  0  0  0  0  0
    4.5758   -6.3930    7.5104 C   0  0  0  0  0  0  0  0  0  0  0  0
    5.2736   -6.9061    8.2782 N   0  0  0  0  0  0  0  0  0  0  0  0
    0.9191   -3.3768    6.6319 F   0  0  0  0  0  0  0  0  0  0  0  0
    1.8725   -4.5645    4.7850 C   0  0  0  0  0  0  0  0  0  0  0  0
   -0.7980   -5.1818    4.7314 O   0  0  0  0  0  0  0  0  0  0  0  0
    2.5802   -2.6872    2.9184 O   0  0  0  0  0  0  0  0  0  0  0  0
   -1.9362   -2.0434    0.9578 S   0  0  1  0  0  6  0  0  0  0  0  0
   -3.3582   -2.1492    1.4352 O   0  0  0  0  0  0  0  0  0  0  0  0
   -1.5779   -0.5892    0.8246 O   0  0  0  0  0  0  0  0  0  0  0  0
   -1.7936   -2.8646   -0.5931 C   0  0  0  0  0  0  0  0  0  0  0  0
   -2.8271   -2.7946   -1.5403 C   0  0  0  0  0  0  0  0  0  0  0  0
   -2.6954   -3.4461   -2.7711 C   0  0  0  0  0  0  0  0  0  0  0  0
   -1.5336   -4.1688   -3.0612 C   0  0  0  0  0  0  0  0  0  0  0  0
   -0.5018   -4.2408   -2.1204 C   0  0  0  0  0  0  0  0  0  0  0  0
   -0.6306   -3.5908   -0.8889 C   0  0  0  0  0  0  0  0  0  0  0  0
   -2.3359   -4.0388    3.0369 H   0  0  0  0  0  0  0  0  0  0  0  0
    0.8243   -1.7389    1.4165 H   0  0  0  0  0  0  0  0  0  0  0  0
    2.7007   -4.6011    8.0850 H   0  0  0  0  0  0  0  0  0  0  0  0
    6.9225   -7.7330    5.7478 H   0  0  0  0  0  0  0  0  0  0  0  0
    9.5966   -5.6527    3.1209 H   0  0  0  0  0  0  0  0  0  0  0  0
    4.2654   -6.0963    2.0895 H   0  0  0  0  0  0  0  0  0  0  0  0
    4.6089   -4.3947    2.6205 H   0  0  0  0  0  0  0  0  0  0  0  0
    5.3907   -5.0745    1.1474 H   0  0  0  0  0  0  0  0  0  0  0  0
    7.6874   -4.8128    1.8119 H   0  0  0  0  0  0  0  0  0  0  0  0
    9.2211   -7.1321    5.0704 H   0  0  0  0  0  0  0  0  0  0  0  0
    2.8525   -5.7209    3.2538 H   0  0  0  0  0  0  0  0  0  0  0  0
   -3.7318   -2.2381   -1.3304 H   0  0  0  0  0  0  0  0  0  0  0  0
   -3.4938   -3.3905   -3.5002 H   0  0  0  0  0  0  0  0  0  0  0  0
   -1.4332   -4.6720   -4.0143 H   0  0  0  0  0  0  0  0  0  0  0  0
    0.3977   -4.7999   -2.3455 H   0  0  0  0  0  0  0  0  0  0  0  0
    0.1747   -3.6507   -0.1670 H   0  0  0  0  0  0  0  0  0  0  0  0
  1  2  4  0
  2  3  4  0
  3  4  4  0
  4  5  4  0
  1  6  4  0
  5  6  4  0
  7  8  4  0
 12 13  1  0
 12 14  4  0
 11 14  4  0
 11 15  4  0
 10 15  4  0
 12 16  4  0
 10 16  4  0
 16 17  1  0
  9 17  1  0
  9 18  4  0
  9 19  4  0
  8 19  4  0
 19 20  1  0
 20 21  3  0
  7 22  1  0
 18 23  4  0
  7 23  4  0
  1 23  1  0
  2 24  2  0
  6 25  2  0
 26  4  1  6
 26 27  2  0
 26 28  2  0
 26 29  1  0
 29 30  4  0
 30 31  4  0
 31 32  4  0
 32 33  4  0
 29 34  4  0
 33 34  4  0
  3 35  1  0
  5 36  1  0
  8 37  1  0
 10 38  1  0
 11 39  1  0
 13 40  1  0
 13 41  1  0
 13 42  1  0
 14 43  1  0
 15 44  1  0
 18 45  1  0
 30 46  1  0
 31 47  1  0
 32 48  1  0
 33 49  1  0
 34 50  1  0
M  CHG  2   1   1   5   1
M  END
