7XRL_FWK_A_605
     RDKit          3D

 19 21  0  0  0  0  0  0  0  0999 V2000
   13.0454   12.7435   41.0609 C   0  0  0  0  0  0  0  0  0  0  0  0
   13.5630   12.1414   42.3349 C   0  0  1  0  0  0  0  0  0  0  0  0
   13.6203   13.1009   43.3747 O   0  0  0  0  0  0  0  0  0  0  0  0
   12.5647   11.1984   42.9733 C   0  0  1  0  0  0  0  0  0  0  0  0
   12.3354   10.0525   42.2651 O   0  0  0  0  0  0  0  0  0  0  0  0
   13.3193   10.9587   44.2871 C   0  0  1  0  0  0  0  0  0  0  0  0
   14.2870   10.0073   44.0159 O   0  0  0  0  0  0  0  0  0  0  0  0
   14.0344   12.3065   44.4140 C   0  0  2  0  0  0  0  0  0  0  0  0
   13.6599   12.8216   45.7130 N   0  0  0  0  0  0  0  0  0  0  0  0
   12.7861   13.8333   45.8692 C   0  0  0  0  0  0  0  0  0  0  0  0
   12.6563   14.0695   47.1906 N   0  0  0  0  0  0  0  0  0  0  0  0
   13.4328   13.2230   47.8468 C   0  0  0  0  0  0  0  0  0  0  0  0
   14.0804   12.4196   46.9209 C   0  0  0  0  0  0  0  0  0  0  0  0
   14.9374   11.4627   47.3041 N   0  0  0  0  0  0  0  0  0  0  0  0
   15.1570   11.2989   48.6319 C   0  0  0  0  0  0  0  0  0  0  0  0
   14.5372   12.0706   49.5592 N   0  0  0  0  0  0  0  0  0  0  0  0
   13.6694   13.0412   49.1958 C   0  0  0  0  0  0  0  0  0  0  0  0
   13.0183   13.8521   50.1752 N   0  0  0  0  0  0  0  0  0  0  0  0
   12.8071   14.2197   41.2959 C   0  0  0  0  0  0  0  0  0  0  0  0
  2  1  1  6
  2  3  1  0
  2  4  1  0
  4  5  1  6
  4  6  1  0
  6  7  1  6
  6  8  1  0
  3  8  1  0
  8  9  1  1
  9 10  1  0
 10 11  2  0
 11 12  1  0
  9 13  1  0
 12 13  2  0
 13 14  1  0
 14 15  2  0
 15 16  1  0
 12 17  1  0
 16 17  2  0
 17 18  1  0
  1 19  1  0
M  END
$$$$
