2BR1_PFP_A_1277
     RDKit          3D

 29 32  0  0  0  0  0  0  0  0999 V2000
   17.9662   -3.4966   20.9939 C   0  0  0  0  0  0  0  0  0  0  0  0
   18.9421   -2.5434   20.6087 O   0  0  0  0  0  0  0  0  0  0  0  0
   18.3668   -1.5885   19.7427 C   0  0  0  0  0  0  0  0  0  0  0  0
   17.0114   -1.7089   19.3427 C   0  0  0  0  0  0  0  0  0  0  0  0
   16.4511   -0.7579   18.4163 C   0  0  0  0  0  0  0  0  0  0  0  0
   19.1610   -0.5612   19.2143 C   0  0  0  0  0  0  0  0  0  0  0  0
   18.6091    0.3782   18.3076 C   0  0  0  0  0  0  0  0  0  0  0  0
   17.2494    0.2963   17.9260 C   0  0  0  0  0  0  0  0  0  0  0  0
   16.7083    1.2534   16.9000 C   0  0  0  0  0  0  0  0  0  0  0  0
   17.3904    1.7971   15.8924 C   0  0  0  0  0  0  0  0  0  0  0  0
   18.6397    1.5411   15.3344 C   0  0  0  0  0  0  0  0  0  0  0  0
   19.4546    0.6482   15.8750 N   0  0  0  0  0  0  0  0  0  0  0  0
   20.7871    0.3959   15.2600 C   0  0  0  0  0  0  0  0  0  0  0  0
   21.0580    0.7986   13.7546 C   0  0  0  0  0  0  0  0  0  0  0  0
   21.7960   -0.1258   12.8543 O   0  0  0  0  0  0  0  0  0  0  0  0
   19.0288    2.2234   14.2482 N   0  0  0  0  0  0  0  0  0  0  0  0
   18.2138    3.1173   13.6858 C   0  0  0  0  0  0  0  0  0  0  0  0
   16.9865    3.3548   14.2048 N   0  0  0  0  0  0  0  0  0  0  0  0
   16.5707    2.7031   15.2963 C   0  0  0  0  0  0  0  0  0  0  0  0
   15.4596    2.7456   15.9393 O   0  0  0  0  0  0  0  0  0  0  0  0
   15.4984    1.9439   16.9472 C   0  0  0  0  0  0  0  0  0  0  0  0
   14.4664    1.7556   17.8334 C   0  0  0  0  0  0  0  0  0  0  0  0
   13.2638    2.4474   17.6364 C   0  0  0  0  0  0  0  0  0  0  0  0
   12.2221    2.3005   18.5304 C   0  0  0  0  0  0  0  0  0  0  0  0
   12.3696    1.4940   19.6369 C   0  0  0  0  0  0  0  0  0  0  0  0
   11.3423    1.3547   20.5119 O   0  0  0  0  0  0  0  0  0  0  0  0
   10.6466    2.5455   21.0177 C   0  0  0  0  0  0  0  0  0  0  0  0
   13.5813    0.8181   19.8569 C   0  0  0  0  0  0  0  0  0  0  0  0
   14.6342    0.9716   18.9586 C   0  0  0  0  0  0  0  0  0  0  0  0
  1  2  1  0
  2  3  1  0
  3  4  2  0
  4  5  1  0
  3  6  1  0
  6  7  2  0
  5  8  2  0
  7  8  1  0
  8  9  1  0
  9 10  1  0
 10 11  2  0
 11 12  1  0
 12 13  1  0
 13 14  1  0
 14 15  1  0
 11 16  1  0
 16 17  2  0
 17 18  1  0
 10 19  1  0
 18 19  2  0
 19 20  1  0
  9 21  2  0
 20 21  1  0
 21 22  1  0
 22 23  2  0
 23 24  1  0
 24 25  2  0
 25 26  1  0
 26 27  1  0
 25 28  1  0
 22 29  1  0
 28 29  2  0
M  END
