2BR1_PFP_A_1277
     RDKit          3D

 50 53  0  0  0  0  0  0  0  0999 V2000
   18.5665   -6.7641   14.3609 C   0  0  2  0  0  0  0  0  0  0  0  0
   18.5838   -6.5641   12.9513 O   0  0  0  0  0  0  0  0  0  0  0  0
   18.0576   -5.4356   12.3054 C   0  0  0  0  0  0  0  0  0  0  0  0
   18.9411   -4.4266   11.9042 C   0  0  0  0  0  0  0  0  0  0  0  0
   18.4659   -3.2820   11.2587 C   0  0  0  0  0  0  0  0  0  0  0  0
   16.6805   -5.2843   12.0509 C   0  0  0  0  0  0  0  0  0  0  0  0
   16.2056   -4.1412   11.4016 C   0  0  0  0  0  0  0  0  0  0  0  0
   17.0961   -3.1379   10.9953 C   0  0  0  0  0  0  0  0  0  0  0  0
   16.5920   -1.9230   10.3295 C   0  0  0  0  0  0  0  0  0  0  0  0
   17.2605   -1.1035    9.4308 C   0  0  0  0  0  0  0  0  0  0  0  0
   18.5255   -1.1256    8.8285 C   0  0  0  0  0  0  0  0  0  0  0  0
   19.4411   -2.2148    9.0052 N   0  0  0  0  0  0  0  0  0  0  0  0
   20.8157   -2.1375    8.5134 C   0  0  1  0  0  0  0  0  0  0  0  0
   21.3233   -3.5190    8.0950 C   0  0  2  0  0  0  0  0  0  0  0  0
   21.5451   -4.3178    9.2249 O   0  0  0  0  0  0  0  0  0  0  0  0
   18.8456   -0.0898    7.9955 N   0  0  0  0  0  0  0  0  0  0  0  0
   17.9628    0.9215    7.7304 C   0  0  0  0  0  0  0  0  0  0  0  0
   16.7167    0.9141    8.2854 N   0  0  0  0  0  0  0  0  0  0  0  0
   16.3884   -0.0984    9.1220 C   0  0  0  0  0  0  0  0  0  0  0  0
   15.2410   -0.2491    9.7327 O   0  0  0  0  0  0  0  0  0  0  0  0
   15.3253   -1.3371   10.4769 C   0  0  0  0  0  0  0  0  0  0  0  0
   14.2098   -1.8047   11.3278 C   0  0  0  0  0  0  0  0  0  0  0  0
   14.4163   -2.7242   12.3700 C   0  0  0  0  0  0  0  0  0  0  0  0
   13.3464   -3.1454   13.1650 C   0  0  0  0  0  0  0  0  0  0  0  0
   12.0523   -2.6402   12.9398 C   0  0  0  0  0  0  0  0  0  0  0  0
   10.9462   -3.0339   13.7077 O   0  0  0  0  0  0  0  0  0  0  0  0
    9.9631   -3.9706   13.2794 C   0  0  2  0  0  0  0  0  0  0  0  0
   11.8536   -1.7067   11.9168 C   0  0  0  0  0  0  0  0  0  0  0  0
   12.9230   -1.2855   11.1215 C   0  0  0  0  0  0  0  0  0  0  0  0
   18.3514   -7.8314   14.5729 H   0  0  0  0  0  0  0  0  0  0  0  0
   17.7721   -6.1422   14.8250 H   0  0  0  0  0  0  0  0  0  0  0  0
   19.5558   -6.5075   14.7951 H   0  0  0  0  0  0  0  0  0  0  0  0
   20.0016   -4.5293   12.0964 H   0  0  0  0  0  0  0  0  0  0  0  0
   19.1646   -2.5090   10.9625 H   0  0  0  0  0  0  0  0  0  0  0  0
   15.9704   -6.0427   12.3505 H   0  0  0  0  0  0  0  0  0  0  0  0
   15.1437   -4.0388   11.2133 H   0  0  0  0  0  0  0  0  0  0  0  0
   19.1039   -3.1018    9.4386 H   0  0  0  0  0  0  0  0  0  0  0  0
   20.8591   -1.4500    7.6410 H   0  0  0  0  0  0  0  0  0  0  0  0
   21.4691   -1.7371    9.3186 H   0  0  0  0  0  0  0  0  0  0  0  0
   22.2831   -3.4077    7.5469 H   0  0  0  0  0  0  0  0  0  0  0  0
   20.5898   -4.0069    7.4125 H   0  0  0  0  0  0  0  0  0  0  0  0
   21.4313   -3.7286   10.0160 H   0  0  0  0  0  0  0  0  0  0  0  0
   18.2492    1.7234    7.0640 H   0  0  0  0  0  0  0  0  0  0  0  0
   15.4058   -3.1011   12.5898 H   0  0  0  0  0  0  0  0  0  0  0  0
   13.5381   -3.8569   13.9566 H   0  0  0  0  0  0  0  0  0  0  0  0
    9.1179   -3.4408   12.7912 H   0  0  0  0  0  0  0  0  0  0  0  0
    9.5762   -4.5193   14.1623 H   0  0  0  0  0  0  0  0  0  0  0  0
   10.4137   -4.7020   12.5756 H   0  0  0  0  0  0  0  0  0  0  0  0
   10.8642   -1.3054   11.7371 H   0  0  0  0  0  0  0  0  0  0  0  0
   12.7423   -0.5640   10.3339 H   0  0  0  0  0  0  0  0  0  0  0  0
  1  2  1  0
  2  3  1  0
  3  4  2  0
  4  5  1  0
  3  6  1  0
  6  7  2  0
  5  8  2  0
  7  8  1  0
  8  9  1  0
  9 10  1  0
 10 11  2  0
 11 12  1  0
 12 13  1  0
 13 14  1  0
 14 15  1  0
 11 16  1  0
 16 17  2  0
 17 18  1  0
 10 19  1  0
 18 19  2  0
 19 20  1  0
  9 21  2  0
 20 21  1  0
 21 22  1  0
 22 23  2  0
 23 24  1  0
 24 25  2  0
 25 26  1  0
 26 27  1  0
 25 28  1  0
 22 29  1  0
 28 29  2  0
  1 30  1  6
  1 31  1  0
  1 32  1  0
  4 33  1  0
  5 34  1  0
  6 35  1  0
  7 36  1  0
 12 37  1  0
 13 38  1  6
 13 39  1  0
 14 40  1  6
 14 41  1  0
 15 42  1  0
 17 43  1  0
 23 44  1  0
 24 45  1  0
 27 46  1  6
 27 47  1  0
 27 48  1  0
 28 49  1  0
 29 50  1  0
M  END
