
     RDKit          3D

 19 21  0  0  0  0  0  0  0  0999 V2000
    9.0332    2.6760   41.5985 C   0  0  0  0  0  0  0  0  0  0  0  0
    9.1352    1.2331   42.0894 C   0  0  1  0  0  0  0  0  0  0  0  0
    8.7332    0.3223   41.0517 O   0  0  0  0  0  0  0  0  0  0  0  0
   10.5614    0.8330   42.4561 C   0  0  1  0  0  0  0  0  0  0  0  0
   10.9316    1.2546   43.7662 O   0  0  0  0  0  0  0  0  0  0  0  0
   10.4825   -0.6835   42.3712 C   0  0  1  0  0  0  0  0  0  0  0  0
    9.9453   -1.2019   43.6068 O   0  0  0  0  0  0  0  0  0  0  0  0
    9.4798   -0.9050   41.2301 C   0  0  2  0  0  0  0  0  0  0  0  0
   10.0122   -1.2847   39.9391 N   0  0  0  0  0  0  0  0  0  0  0  0
    9.7182   -0.6299   38.7670 C   0  0  0  0  0  0  0  0  0  0  0  0
   10.3163   -1.1743   37.7293 N   0  0  0  0  0  0  0  0  0  0  0  0
   11.0586   -2.2083   38.2585 C   0  0  0  0  0  0  0  0  0  0  0  0
   10.8758   -2.3004   39.6309 C   0  0  0  0  0  0  0  0  0  0  0  0
   11.4296   -3.2048   40.4572 N   0  0  0  0  0  0  0  0  0  0  0  0
   12.2243   -4.0583   39.7776 C   0  0  0  0  0  0  0  0  0  0  0  0
   12.4860   -4.0903   38.4546 N   0  0  0  0  0  0  0  0  0  0  0  0
   11.9164   -3.1512   37.6671 C   0  0  0  0  0  0  0  0  0  0  0  0
   12.1924   -3.1792   36.3066 N   0  0  0  0  0  0  0  0  0  0  0  0
    9.8454    2.9087   40.3319 C   0  0  0  0  0  0  0  0  0  0  0  0
  2  1  1  6
  2  3  1  0
  2  4  1  0
  4  5  1  1
  4  6  1  0
  6  7  1  1
  6  8  1  0
  3  8  1  0
  8  9  1  6
  9 10  4  0
 10 11  4  0
 11 12  4  0
  9 13  4  0
 12 13  4  0
 13 14  4  0
 14 15  4  0
 15 16  4  0
 12 17  4  0
 16 17  4  0
 17 18  1  0
  1 19  1  0
M  END
