
     RDKit          3D

 34 35  0  0  0  0  0  0  0  0999 V2000
   11.9040   -4.6452  111.5722 C   0  0  0  0  0  0  0  0  0  0  0  0
   12.2950   -5.3875  110.5382 C   0  0  0  0  0  0  0  0  0  0  0  0
   13.2260   -3.4581  109.4276 C   0  0  0  0  0  0  0  0  0  0  0  0
   12.2402   -3.2125  111.5005 C   0  0  0  0  0  0  0  0  0  0  0  0
   13.3999   -5.6379  108.3251 C   0  0  2  0  0  0  0  0  0  0  0  0
   13.9509   -7.0248  108.7218 C   0  0  1  0  0  0  0  0  0  0  0  0
   13.6074   -7.8581  107.5045 C   0  0  1  0  0  0  0  0  0  0  0  0
   12.2760   -7.2748  107.0559 C   0  0  1  0  0  0  0  0  0  0  0  0
   11.0813   -7.9513  107.7364 C   0  0  0  0  0  0  0  0  0  0  0  0
    7.4891   -9.1388  106.6329 C   0  0  0  0  0  0  0  0  0  0  0  0
    8.1816   -9.0797  105.2665 C   0  0  2  0  0  0  0  0  0  0  0  0
    7.6096  -10.0115  104.1656 C   0  0  2  0  0  0  0  0  0  0  0  0
    7.1757   -9.3401  102.8518 C   0  0  2  0  0  0  0  0  0  0  0  0
    7.4364   -7.8337  102.8337 C   0  0  0  0  0  0  0  0  0  0  0  0
   12.9780   -4.8342  109.4770 N   0  0  0  0  0  0  0  0  0  0  0  0
   12.8499   -2.6766  110.4901 N   0  0  0  0  0  0  0  0  0  0  0  0
   11.8938   -2.3819  112.5296 N   0  0  0  0  0  0  0  0  0  0  0  0
   13.7964   -2.9605  108.4565 O   0  0  0  0  0  0  0  0  0  0  0  0
   12.2883   -5.8759  107.4330 O   0  0  0  0  0  0  0  0  0  0  0  0
   11.3232   -8.0022  109.1352 O   0  0  0  0  0  0  0  0  0  0  0  0
   10.3033   -9.0568  111.2826 O   0  0  0  0  0  0  0  0  0  0  0  0
   12.2300  -10.1614  110.0196 O   0  0  0  0  0  0  0  0  0  0  0  0
    9.9311  -10.1339  108.9492 O   0  0  0  0  0  0  0  0  0  0  0  0
    7.7284   -8.8955  109.5534 O   0  0  0  0  0  0  0  0  0  0  0  0
    7.8930  -11.4390  109.5940 O   0  0  0  0  0  0  0  0  0  0  0  0
    7.9471  -10.2722  107.3519 O   0  0  0  0  0  0  0  0  0  0  0  0
    6.6881   -7.2100  103.8762 O   0  0  0  0  0  0  0  0  0  0  0  0
    5.7806   -9.5454  102.5838 O   0  0  0  0  0  0  0  0  0  0  0  0
    6.5021  -10.7844  104.6535 O   0  0  0  0  0  0  0  0  0  0  0  0
    9.5636   -9.4156  105.4932 O   0  0  0  0  0  0  0  0  0  0  0  0
   14.6020   -7.6454  106.4917 O   0  0  0  0  0  0  0  0  0  0  0  0
   15.3608   -7.0830  108.9452 O   0  0  0  0  0  0  0  0  0  0  0  0
   10.8719   -9.3177  109.9262 P   0  0  2  0  0  5  0  0  0  0  0  0
    8.3520  -10.0794  108.8862 P   0  0  2  0  0  5  0  0  0  0  0  0
  1  2  4  0
  1  4  4  0
  5  6  1  0
  6  7  1  0
  7  8  1  0
  8  9  1  1
 10 11  1  0
 11 12  1  0
 12 13  1  0
 13 14  1  0
  2 15  4  0
  3 15  4  0
  5 15  1  1
  3 16  4  0
  4 16  4  0
  4 17  1  0
  3 18  2  0
  5 19  1  0
  8 19  1  0
  9 20  1  0
 10 26  1  0
 14 27  1  0
 13 28  1  1
 12 29  1  1
 11 30  1  1
  7 31  1  6
  6 32  1  6
 20 33  1  0
 21 33  2  0
 33 22  1  1
 23 33  1  0
 23 34  1  0
 24 34  2  0
 34 25  1  1
 26 34  1  0
M  END
