
     RDKit          3D

 12 12  0  0  0  0  0  0  0  0999 V2000
   54.8161   22.2712   13.8367 C   0  0  2  0  0  0  0  0  0  0  0  0
   54.3272   22.0192   15.2577 C   0  0  2  0  0  0  0  0  0  0  0  0
   54.0033   20.5370   15.4619 C   0  0  1  0  0  0  0  0  0  0  0  0
   55.1980   19.6677   15.0326 C   0  0  1  0  0  0  0  0  0  0  0  0
   54.8469   18.1745   15.0604 C   0  0  0  0  0  0  0  0  0  0  0  0
   55.9953   21.3348   13.5373 C   0  0  2  0  0  0  0  0  0  0  0  0
   56.3825   21.5416   12.1855 O   0  0  0  0  0  0  0  0  0  0  0  0
   55.1988   23.6488   13.7075 O   0  0  0  0  0  0  0  0  0  0  0  0
   53.1540   22.8018   15.5301 O   0  0  0  0  0  0  0  0  0  0  0  0
   53.7004   20.3262   16.8448 O   0  0  0  0  0  0  0  0  0  0  0  0
   55.6206   19.9754   13.6881 O   0  0  0  0  0  0  0  0  0  0  0  0
   54.1226   17.8099   13.8841 O   0  0  0  0  0  0  0  0  0  0  0  0
  1  2  1  0
  2  3  1  0
  3  4  1  0
  4  5  1  6
  1  6  1  0
  6  7  1  6
  1  8  1  1
  2  9  1  6
  3 10  1  1
  4 11  1  0
  6 11  1  0
  5 12  1  0
M  END
