1UNL_RRC_A_1293
     RDKit          3D

 26 28  0  0  0  0  0  0  0  0999 V2000
   57.6595   31.1462   29.3334 O   0  0  0  0  0  0  0  0  0  0  0  0
   58.2428   30.6016   30.4793 C   0  0  0  0  0  0  0  0  0  0  0  0
   59.4775   29.8582   30.0598 C   0  0  1  0  0  0  0  0  0  0  0  0
   60.4504   29.6943   31.2229 C   0  0  0  0  0  0  0  0  0  0  0  0
   61.5913   28.8174   30.7532 C   0  0  0  0  0  0  0  0  0  0  0  0
   59.1364   28.5551   29.5628 N   0  0  0  0  0  0  0  0  0  0  0  0
   59.0007   28.2306   28.1831 C   0  0  0  0  0  0  0  0  0  0  0  0
   58.6354   26.9883   27.7648 N   0  0  0  0  0  0  0  0  0  0  0  0
   58.5102   26.6783   26.4633 C   0  0  0  0  0  0  0  0  0  0  0  0
   58.1684   25.5419   25.8114 N   0  0  0  0  0  0  0  0  0  0  0  0
   57.8269   24.2779   26.4421 C   0  0  2  0  0  0  0  0  0  0  0  0
   56.5502   24.3785   27.2469 C   0  0  0  0  0  0  0  0  0  0  0  0
   59.0001   23.8517   27.2807 C   0  0  0  0  0  0  0  0  0  0  0  0
   58.1944   25.7674   24.4675 C   0  0  0  0  0  0  0  0  0  0  0  0
   58.7509   27.6224   25.4851 C   0  0  0  0  0  0  0  0  0  0  0  0
   58.5566   27.0598   24.2780 N   0  0  0  0  0  0  0  0  0  0  0  0
   59.2322   29.1401   27.2238 N   0  0  0  0  0  0  0  0  0  0  0  0
   59.1203   28.8779   25.9120 C   0  0  0  0  0  0  0  0  0  0  0  0
   59.3908   29.9247   24.9549 N   0  0  0  0  0  0  0  0  0  0  0  0
   59.2438   31.3152   25.3556 C   0  0  0  0  0  0  0  0  0  0  0  0
   60.6123   31.8823   25.4940 C   0  0  0  0  0  0  0  0  0  0  0  0
   61.4299   32.0006   24.3681 C   0  0  0  0  0  0  0  0  0  0  0  0
   62.7080   32.5286   24.4883 C   0  0  0  0  0  0  0  0  0  0  0  0
   63.1453   32.9295   25.7369 C   0  0  0  0  0  0  0  0  0  0  0  0
   62.3361   32.8117   26.8481 C   0  0  0  0  0  0  0  0  0  0  0  0
   61.0508   32.2836   26.7427 C   0  0  0  0  0  0  0  0  0  0  0  0
  2  1  1  1
  3  2  1  0
  3  4  1  0
  4  5  1  1
  3  6  1  1
  6  7  1  0
  7  8  2  0
  8  9  1  0
  9 10  1  0
 11 10  1  1
 12 11  1  6
 13 11  1  6
 10 14  1  0
  9 15  2  0
 14 16  2  0
 15 16  1  0
  7 17  1  0
 15 18  1  0
 17 18  2  0
 18 19  1  0
 20 19  1  1
 20 21  1  0
 21 22  2  0
 22 23  1  0
 23 24  2  0
 24 25  1  0
 21 26  1  0
 25 26  2  0
M  END
$$$$
