6Z5Z_BDF_A_103
     RDKit          3D

 24 24  0  0  0  0  0  0  0  0999 V2000
    5.9945   -3.2488  -10.9072 C   0  0  0  0  0  0  0  0  0  0  0  0
    5.3642   -3.4954   -9.5195 C   0  0  1  0  0  0  0  0  0  0  0  0
    4.2054   -4.5541   -9.6144 C   0  0  2  0  0  0  0  0  0  0  0  0
    3.1495   -4.2858   -8.5220 C   0  0  1  0  0  0  0  0  0  0  0  0
    2.5920   -2.8461   -8.6578 C   0  0  1  0  0  0  0  0  0  0  0  0
    3.6072   -1.9138   -9.3460 C   0  0  0  0  0  0  0  0  0  0  0  0
    5.0494   -3.4299  -11.9292 O   0  0  0  0  0  0  0  0  0  0  0  0
    6.3836   -3.9903   -8.6847 O   0  0  0  0  0  0  0  0  0  0  0  0
    4.6978   -5.8724   -9.5536 O   0  0  0  0  0  0  0  0  0  0  0  0
    2.1068   -5.2252   -8.6084 O   0  0  0  0  0  0  0  0  0  0  0  0
    1.3998   -2.8351   -9.4033 O   0  0  0  0  0  0  0  0  0  0  0  0
    4.9341   -2.2420   -8.9793 O   0  0  0  0  0  0  0  0  0  0  0  0
    6.8159   -3.9806  -11.0634 H   0  0  0  0  0  0  0  0  0  0  0  0
    6.4500   -2.2344  -10.9707 H   0  0  0  0  0  0  0  0  0  0  0  0
    3.6894   -4.4455  -10.5950 H   0  0  0  0  0  0  0  0  0  0  0  0
    3.6397   -4.3655   -7.5221 H   0  0  0  0  0  0  0  0  0  0  0  0
    2.3997   -2.4466   -7.6332 H   0  0  0  0  0  0  0  0  0  0  0  0
    3.4835   -1.9388  -10.4516 H   0  0  0  0  0  0  0  0  0  0  0  0
    3.4032   -0.8679   -9.0334 H   0  0  0  0  0  0  0  0  0  0  0  0
    4.6003   -2.5553  -12.0653 H   0  0  0  0  0  0  0  0  0  0  0  0
    6.0426   -3.9672   -7.7525 H   0  0  0  0  0  0  0  0  0  0  0  0
    4.9687   -6.0584   -8.6170 H   0  0  0  0  0  0  0  0  0  0  0  0
    2.4200   -6.0507   -8.1545 H   0  0  0  0  0  0  0  0  0  0  0  0
    0.6605   -3.0401   -8.7727 H   0  0  0  0  0  0  0  0  0  0  0  0
  1  2  1  0
  2  3  1  0
  3  4  1  0
  4  5  1  0
  5  6  1  0
  1  7  1  0
  2  8  1  1
  3  9  1  0
  4 10  1  0
  5 11  1  0
  2 12  1  0
  6 12  1  0
  1 13  1  0
  1 14  1  0
  3 15  1  6
  4 16  1  1
  5 17  1  1
  6 18  1  0
  6 19  1  0
  7 20  1  0
  8 21  1  0
  9 22  1  0
 10 23  1  0
 11 24  1  0
M  END
