8CNH_V6U_A_501
     RDKit          3D

 41 43  0  0  0  0  0  0  0  0999 V2000
  -33.0176    1.9849    1.4233 C   0  0  0  0  0  0  0  0  0  0  0  0
  -31.7933    2.3685    0.8045 C   0  0  0  0  0  0  0  0  0  0  0  0
  -31.4713    3.7374    0.7259 C   0  0  0  0  0  0  0  0  0  0  0  0
  -32.3270    4.7071    1.2471 C   0  0  0  0  0  0  0  0  0  0  0  0
  -33.5147    4.3293    1.8668 C   0  0  0  0  0  0  0  0  0  0  0  0
  -33.8560    2.9803    1.9592 C   0  0  0  0  0  0  0  0  0  0  0  0
  -32.2996    0.9716   -4.4724 C   0  0  2  0  0  0  0  0  0  0  0  0
  -26.1939    2.9507   -2.5166 C   0  0  0  0  0  0  0  0  0  0  0  0
  -27.4994    2.5745   -2.8358 C   0  0  0  0  0  0  0  0  0  0  0  0
  -28.3412    2.1214   -1.8096 C   0  0  0  0  0  0  0  0  0  0  0  0
  -26.5810    2.4251   -0.2470 C   0  0  0  0  0  0  0  0  0  0  0  0
  -29.7325    1.7067   -2.1095 C   0  0  0  0  0  0  0  0  0  0  0  0
  -30.7513    1.3506   -1.2183 C   0  0  0  0  0  0  0  0  0  0  0  0
  -31.8339    1.0573   -2.0250 C   0  0  0  0  0  0  0  0  0  0  0  0
  -30.7738    1.3727    0.2886 C   0  0  1  0  0  0  0  0  0  0  0  0
  -33.4613    0.5781    1.5386 C   0  0  0  0  0  0  0  0  0  0  0  0
  -33.6913   -1.6688    0.5269 C   0  0  2  0  0  0  0  0  0  0  0  0
  -25.7597    2.8703   -1.2330 N   0  0  0  0  0  0  0  0  0  0  0  0
  -27.8545    2.0543   -0.5420 N   0  0  0  0  0  0  0  0  0  0  0  0
  -31.4683    1.2329   -3.3058 N   0  0  0  0  0  0  0  0  0  0  0  0
  -30.2039    1.6131   -3.3710 N   0  0  0  0  0  0  0  0  0  0  0  0
  -26.1089    2.3480    1.0958 N   0  0  0  0  0  0  0  0  0  0  0  0
  -33.2859   -0.3068    0.4718 O   0  0  0  0  0  0  0  0  0  0  0  0
  -34.0499    0.1949    2.5873 O   0  0  0  0  0  0  0  0  0  0  0  0
  -25.1093    3.5271   -3.7662 Cl  0  0  0  0  0  0  0  0  0  0  0  0
  -30.5457    4.0587    0.2688 H   0  0  0  0  0  0  0  0  0  0  0  0
  -32.0628    5.7547    1.1785 H   0  0  0  0  0  0  0  0  0  0  0  0
  -34.1745    5.0836    2.2757 H   0  0  0  0  0  0  0  0  0  0  0  0
  -34.7909    2.7129    2.4372 H   0  0  0  0  0  0  0  0  0  0  0  0
  -32.5759   -0.1032   -4.4981 H   0  0  0  0  0  0  0  0  0  0  0  0
  -31.7452    1.2276   -5.4001 H   0  0  0  0  0  0  0  0  0  0  0  0
  -33.2229    1.5874   -4.4279 H   0  0  0  0  0  0  0  0  0  0  0  0
  -27.8461    2.6412   -3.8596 H   0  0  0  0  0  0  0  0  0  0  0  0
  -32.8185    0.7459   -1.7061 H   0  0  0  0  0  0  0  0  0  0  0  0
  -29.7803    1.6274    0.7008 H   0  0  0  0  0  0  0  0  0  0  0  0
  -30.9583    0.3480    0.6625 H   0  0  0  0  0  0  0  0  0  0  0  0
  -32.8994   -2.2823    1.0064 H   0  0  0  0  0  0  0  0  0  0  0  0
  -33.8918   -2.0470   -0.4979 H   0  0  0  0  0  0  0  0  0  0  0  0
  -34.6206   -1.7474    1.1275 H   0  0  0  0  0  0  0  0  0  0  0  0
  -26.3418    3.1005    1.7814 H   0  0  0  0  0  0  0  0  0  0  0  0
  -25.5237    1.5403    1.4048 H   0  0  0  0  0  0  0  0  0  0  0  0
  1  2  2  0
  2  3  1  0
  3  4  2  0
  4  5  1  0
  1  6  1  0
  5  6  2  0
  8  9  2  0
  9 10  1  0
 10 12  1  0
 12 13  1  0
 13 14  2  0
 13 15  1  0
  2 15  1  0
  1 16  1  0
 11 18  2  0
  8 18  1  0
 11 19  1  0
 10 19  2  0
 14 20  1  0
  7 20  1  0
 12 21  2  0
 20 21  1  0
 11 22  1  0
 17 23  1  0
 16 23  1  0
 16 24  2  0
  8 25  1  0
  3 26  1  0
  4 27  1  0
  5 28  1  0
  6 29  1  0
  7 30  1  6
  7 31  1  0
  7 32  1  0
  9 33  1  0
 14 34  1  0
 15 35  1  1
 15 36  1  0
 17 37  1  1
 17 38  1  0
 17 39  1  0
 22 40  1  0
 22 41  1  0
M  END
