7VBU_6I4_A_507
     RDKit          3D

 31 34  0  0  0  0  0  0  0  0999 V2000
   34.9966   31.9167   68.5413 C   0  0  0  0  0  0  0  0  0  0  0  0
   35.0155   31.2910   67.2754 C   0  0  0  0  0  0  0  0  0  0  0  0
   35.1888   32.0487   66.1053 C   0  0  0  0  0  0  0  0  0  0  0  0
   35.1725   33.3138   68.6617 C   0  0  0  0  0  0  0  0  0  0  0  0
   35.3178   34.0507   67.4777 C   0  0  0  0  0  0  0  0  0  0  0  0
   35.3326   33.4263   66.2426 C   0  0  0  0  0  0  0  0  0  0  0  0
   35.1128   33.9883   70.0067 C   0  0  1  0  0  0  0  0  0  0  0  0
   36.3799   33.8861   70.8475 C   0  0  1  0  0  0  0  0  0  0  0  0
   36.0335   35.1924   70.1589 C   0  0  1  0  0  0  0  0  0  0  0  0
   35.5517   35.5981   66.0217 C   0  0  0  0  0  0  0  0  0  0  0  0
   35.4859   34.4251   65.3098 C   0  0  0  0  0  0  0  0  0  0  0  0
   35.5626   34.4175   63.9221 C   0  0  0  0  0  0  0  0  0  0  0  0
   35.7137   35.6583   63.2791 C   0  0  0  0  0  0  0  0  0  0  0  0
   35.7811   36.8506   64.0447 C   0  0  0  0  0  0  0  0  0  0  0  0
   35.9347   38.1712   63.3607 C   0  0  1  0  0  0  0  0  0  0  0  0
   35.6954   36.7999   65.4102 N   0  0  0  0  0  0  0  0  0  0  0  0
   35.4487   35.3933   67.3509 N   0  0  0  0  0  0  0  0  0  0  0  0
   34.8450   31.3098   69.4252 H   0  0  0  0  0  0  0  0  0  0  0  0
   34.8877   30.2187   67.2051 H   0  0  0  0  0  0  0  0  0  0  0  0
   35.1975   31.5760   65.1317 H   0  0  0  0  0  0  0  0  0  0  0  0
   34.1554   34.0367   70.5673 H   0  0  0  0  0  0  0  0  0  0  0  0
   36.2093   33.9006   71.9446 H   0  0  0  0  0  0  0  0  0  0  0  0
   37.2446   33.3619   70.3865 H   0  0  0  0  0  0  0  0  0  0  0  0
   36.6844   35.4258   69.2886 H   0  0  0  0  0  0  0  0  0  0  0  0
   35.6537   35.9775   70.8460 H   0  0  0  0  0  0  0  0  0  0  0  0
   35.5073   33.4960   63.3573 H   0  0  0  0  0  0  0  0  0  0  0  0
   35.7769   35.6963   62.1987 H   0  0  0  0  0  0  0  0  0  0  0  0
   36.8670   38.1760   62.7578 H   0  0  0  0  0  0  0  0  0  0  0  0
   35.0656   38.3496   62.6933 H   0  0  0  0  0  0  0  0  0  0  0  0
   35.9883   38.9932   64.1059 H   0  0  0  0  0  0  0  0  0  0  0  0
   35.4598   36.1159   68.1043 H   0  0  0  0  0  0  0  0  0  0  0  0
  1  2  2  0
  2  3  1  0
  1  4  1  0
  4  5  2  0
  5  6  1  0
  3  6  2  0
  4  7  1  0
  7  8  1  0
  8  9  1  0
  7  9  1  0
 10 11  2  0
  6 11  1  0
 11 12  1  0
 12 13  2  0
 13 14  1  0
 14 15  1  0
 10 16  1  0
 14 16  2  0
 10 17  1  0
  5 17  1  0
  1 18  1  0
  2 19  1  0
  3 20  1  0
  7 21  1  1
  8 22  1  1
  8 23  1  0
  9 24  1  6
  9 25  1  0
 12 26  1  0
 13 27  1  0
 15 28  1  6
 15 29  1  0
 15 30  1  0
 17 31  1  0
M  END
