7MGY_ZD1_A_701
     RDKit          3D

 46 47  0  0  0  0  0  0  0  0999 V2000
   20.8338  -29.7313  309.8786 C   0  0  1  0  0  0  0  0  0  0  0  0
   21.3510  -28.3234  309.7014 C   0  0  0  0  0  0  0  0  0  0  0  0
   22.5935  -28.0406  309.2495 C   0  0  0  0  0  0  0  0  0  0  0  0
   22.9655  -26.5965  309.0071 C   0  0  1  0  0  0  0  0  0  0  0  0
   23.6678  -29.1102  309.0974 C   0  0  2  0  0  0  0  0  0  0  0  0
   25.5656  -28.0467  310.0408 C   0  0  1  0  0  0  0  0  0  0  0  0
   26.9128  -28.5628  310.6024 C   0  0  1  0  0  0  0  0  0  0  0  0
   27.8977  -27.3990  310.8824 C   0  0  2  0  0  0  0  0  0  0  0  0
   27.4912  -26.1309  310.1151 C   0  0  1  0  0  0  0  0  0  0  0  0
   26.0209  -25.7632  310.4804 C   0  0  1  0  0  0  0  0  0  0  0  0
   25.3701  -24.8238  309.4525 C   0  0  1  0  0  0  0  0  0  0  0  0
   23.0830  -30.5395  309.0226 C   0  0  1  0  0  0  0  0  0  0  0  0
   21.9735  -30.7628  310.0715 C   0  0  1  0  0  0  0  0  0  0  0  0
   19.8598  -29.7789  310.9718 N   0  0  0  0  0  0  0  0  0  0  0  0
   23.9524  -26.5113  308.0148 O   0  0  0  0  0  0  0  0  0  0  0  0
   24.5499  -29.0233  310.2106 O   0  0  0  0  0  0  0  0  0  0  0  0
   26.6868  -29.2804  311.7893 O   0  0  0  0  0  0  0  0  0  0  0  0
   29.1965  -27.7914  310.5164 O   0  0  0  0  0  0  0  0  0  0  0  0
   28.3537  -25.0777  310.4639 O   0  0  0  0  0  0  0  0  0  0  0  0
   25.9200  -25.0161  308.1788 O   0  0  0  0  0  0  0  0  0  0  0  0
   25.1715  -26.8806  310.7403 O   0  0  0  0  0  0  0  0  0  0  0  0
   22.5715  -30.7599  307.7312 O   0  0  0  0  0  0  0  0  0  0  0  0
   22.5023  -30.7563  311.3773 O   0  0  0  0  0  0  0  0  0  0  0  0
   20.2969  -29.9893  308.9390 H   0  0  0  0  0  0  0  0  0  0  0  0
   20.6370  -27.5136  309.8290 H   0  0  0  0  0  0  0  0  0  0  0  0
   22.0615  -26.0090  308.7242 H   0  0  0  0  0  0  0  0  0  0  0  0
   23.3693  -26.1382  309.9318 H   0  0  0  0  0  0  0  0  0  0  0  0
   24.1744  -28.9312  308.1185 H   0  0  0  0  0  0  0  0  0  0  0  0
   25.6877  -27.7903  308.9627 H   0  0  0  0  0  0  0  0  0  0  0  0
   27.3471  -29.2461  309.8344 H   0  0  0  0  0  0  0  0  0  0  0  0
   27.8707  -27.1633  311.9745 H   0  0  0  0  0  0  0  0  0  0  0  0
   27.5821  -26.3463  309.0234 H   0  0  0  0  0  0  0  0  0  0  0  0
   26.0660  -25.1918  311.4340 H   0  0  0  0  0  0  0  0  0  0  0  0
   24.2764  -25.0282  309.4201 H   0  0  0  0  0  0  0  0  0  0  0  0
   25.5139  -23.7664  309.7677 H   0  0  0  0  0  0  0  0  0  0  0  0
   23.9053  -31.2673  309.2112 H   0  0  0  0  0  0  0  0  0  0  0  0
   21.5446  -31.7751  309.9032 H   0  0  0  0  0  0  0  0  0  0  0  0
   18.8986  -29.6705  310.5733 H   0  0  0  0  0  0  0  0  0  0  0  0
   19.9031  -30.7087  311.4481 H   0  0  0  0  0  0  0  0  0  0  0  0
   24.7795  -26.1861  308.4571 H   0  0  0  0  0  0  0  0  0  0  0  0
   27.5087  -29.8097  311.9635 H   0  0  0  0  0  0  0  0  0  0  0  0
   29.6524  -26.9872  310.1545 H   0  0  0  0  0  0  0  0  0  0  0  0
   28.4079  -25.0649  311.4547 H   0  0  0  0  0  0  0  0  0  0  0  0
   26.3036  -24.1416  307.9089 H   0  0  0  0  0  0  0  0  0  0  0  0
   23.3294  -31.0678  307.1684 H   0  0  0  0  0  0  0  0  0  0  0  0
   23.1974  -31.4605  311.4388 H   0  0  0  0  0  0  0  0  0  0  0  0
  1  2  1  0
  2  3  2  0
  3  4  1  0
  3  5  1  0
  6  7  1  0
  7  8  1  0
  8  9  1  0
  9 10  1  0
 10 11  1  0
  5 12  1  0
 12 13  1  0
  1 13  1  0
  1 14  1  0
  4 15  1  0
  6 16  1  0
  5 16  1  0
  7 17  1  0
  8 18  1  0
  9 19  1  0
 11 20  1  0
 10 21  1  0
  6 21  1  0
 12 22  1  0
 13 23  1  0
  1 24  1  6
  2 25  1  0
  4 26  1  6
  4 27  1  0
  5 28  1  6
  6 29  1  6
  7 30  1  6
  8 31  1  1
  9 32  1  6
 10 33  1  1
 11 34  1  6
 11 35  1  0
 12 36  1  1
 13 37  1  6
 14 38  1  0
 14 39  1  0
 15 40  1  0
 17 41  1  0
 18 42  1  0
 19 43  1  0
 20 44  1  0
 22 45  1  0
 23 46  1  0
M  END
