1T46_STI_A_3
     RDKit          3D

 37 41  0  0  0  0  0  0  0  0999 V2000
   32.4153   24.7297   47.6399 C   0  0  0  0  0  0  0  0  0  0  0  0
   31.6422   25.4163   46.7088 C   0  0  0  0  0  0  0  0  0  0  0  0
   30.3327   25.0565   46.4682 C   0  0  0  0  0  0  0  0  0  0  0  0
   29.8404   23.9916   47.1932 C   0  0  0  0  0  0  0  0  0  0  0  0
   30.5965   23.3360   48.0898 N   0  0  0  0  0  0  0  0  0  0  0  0
   31.8750   23.6557   48.3525 C   0  0  0  0  0  0  0  0  0  0  0  0
   29.5454   25.7948   45.4902 C   0  0  0  0  0  0  0  0  0  0  0  0
   30.0391   26.8892   44.8199 C   0  0  0  0  0  0  0  0  0  0  0  0
   29.1993   27.5016   43.9159 C   0  0  0  0  0  0  0  0  0  0  0  0
   27.9603   27.0465   43.7048 N   0  0  0  0  0  0  0  0  0  0  0  0
   27.4618   25.9848   44.3458 C   0  0  0  0  0  0  0  0  0  0  0  0
   28.3052   25.3877   45.2389 N   0  0  0  0  0  0  0  0  0  0  0  0
   26.1703   25.4515   44.1717 N   0  0  0  0  0  0  0  0  0  0  0  0
   25.1121   26.0046   43.4476 C   0  0  0  0  0  0  0  0  0  0  0  0
   23.8974   26.2721   44.1067 C   0  0  0  0  0  0  0  0  0  0  0  0
   22.8215   26.8158   43.4385 C   0  0  0  0  0  0  0  0  0  0  0  0
   22.8701   27.1272   42.0990 C   0  0  0  0  0  0  0  0  0  0  0  0
   24.0497   26.8727   41.4383 C   0  0  0  0  0  0  0  0  0  0  0  0
   25.1295   26.3264   42.1100 C   0  0  0  0  0  0  0  0  0  0  0  0
   24.1546   27.1789   40.0524 N   0  0  0  0  0  0  0  0  0  0  0  0
   24.6135   26.1352   39.2018 C   0  0  0  0  0  0  0  0  0  0  0  0
   24.6269   26.2134   37.7560 C   0  0  0  0  0  0  0  0  0  0  0  0
   24.9355   25.0690   37.0534 C   0  0  0  0  0  0  0  0  0  0  0  0
   24.9746   25.0441   35.6698 C   0  0  0  0  0  0  0  0  0  0  0  0
   24.6915   26.2191   34.9618 C   0  0  0  0  0  0  0  0  0  0  0  0
   24.3845   27.3603   35.6391 C   0  0  0  0  0  0  0  0  0  0  0  0
   24.3520   27.3580   37.0391 C   0  0  0  0  0  0  0  0  0  0  0  0
   24.7584   26.1050   33.4823 C   0  0  0  0  0  0  0  0  0  0  0  0
   23.4721   26.1681   32.8655 N   0  0  0  0  0  0  0  0  0  0  0  0
   22.5946   27.1614   33.3953 C   0  0  0  0  0  0  0  0  0  0  0  0
   22.9316   28.5547   32.9110 C   0  0  0  0  0  0  0  0  0  0  0  0
   23.3932   28.5751   31.5594 N   0  0  0  0  0  0  0  0  0  0  0  0
   24.7225   29.0710   31.3652 C   0  0  0  0  0  0  0  0  0  0  0  0
   23.0737   27.4126   30.7877 C   0  0  0  0  0  0  0  0  0  0  0  0
   23.5041   26.1141   31.4375 C   0  0  0  0  0  0  0  0  0  0  0  0
   25.0321   25.0817   39.7461 O   0  0  0  0  0  0  0  0  0  0  0  0
   23.7687   25.9599   45.5672 C   0  0  0  0  0  0  0  0  0  0  0  0
  1  2  2  0
  2  3  1  0
  3  4  2  0
  4  5  1  0
  1  6  1  0
  5  6  2  0
  3  7  1  0
  7  8  2  0
  8  9  1  0
  9 10  2  0
 10 11  1  0
  7 12  1  0
 11 12  2  0
 11 13  1  0
 13 14  1  0
 14 15  2  0
 15 16  1  0
 16 17  2  0
 17 18  1  0
 14 19  1  0
 18 19  2  0
 18 20  1  0
 20 21  1  0
 21 22  1  0
 22 23  2  0
 23 24  1  0
 24 25  2  0
 25 26  1  0
 22 27  1  0
 26 27  2  0
 25 28  1  0
 28 29  1  0
 29 30  1  0
 30 31  1  0
 31 32  1  0
 32 33  1  0
 32 34  1  0
 29 35  1  0
 34 35  1  0
 21 36  2  0
 15 37  1  0
M  END
$$$$
