1T46_STI_A_3
     RDKit          3D

 37 41  0  0  0  0  0  0  0  0999 V2000
   33.5947   24.8067   47.1642 C   0  0  0  0  0  0  0  0  0  0  0  0
   32.3434   24.3864   46.7244 C   0  0  0  0  0  0  0  0  0  0  0  0
   31.4849   25.2565   46.0858 C   0  0  0  0  0  0  0  0  0  0  0  0
   31.9317   26.5495   45.9107 C   0  0  0  0  0  0  0  0  0  0  0  0
   33.1422   26.9441   46.3399 N   0  0  0  0  0  0  0  0  0  0  0  0
   34.0066   26.1274   46.9655 C   0  0  0  0  0  0  0  0  0  0  0  0
   30.1820   24.7887   45.6329 C   0  0  0  0  0  0  0  0  0  0  0  0
   29.7748   23.4835   45.7793 C   0  0  0  0  0  0  0  0  0  0  0  0
   28.5183   23.1632   45.3142 C   0  0  0  0  0  0  0  0  0  0  0  0
   27.7351   24.0858   44.7468 N   0  0  0  0  0  0  0  0  0  0  0  0
   28.1120   25.3592   44.5952 C   0  0  0  0  0  0  0  0  0  0  0  0
   29.3598   25.6625   45.0607 N   0  0  0  0  0  0  0  0  0  0  0  0
   27.3396   26.3809   44.0101 N   0  0  0  0  0  0  0  0  0  0  0  0
   25.9749   26.3530   43.7161 C   0  0  0  0  0  0  0  0  0  0  0  0
   25.0509   26.2011   44.7672 C   0  0  0  0  0  0  0  0  0  0  0  0
   23.6934   26.1656   44.5316 C   0  0  0  0  0  0  0  0  0  0  0  0
   23.1647   26.2759   43.2660 C   0  0  0  0  0  0  0  0  0  0  0  0
   24.0528   26.4252   42.2260 C   0  0  0  0  0  0  0  0  0  0  0  0
   25.4159   26.4605   42.4634 C   0  0  0  0  0  0  0  0  0  0  0  0
   23.5587   26.5467   40.8969 N   0  0  0  0  0  0  0  0  0  0  0  0
   24.4058   26.0753   39.8560 C   0  0  0  0  0  0  0  0  0  0  0  0
   24.1059   26.2027   38.4452 C   0  0  0  0  0  0  0  0  0  0  0  0
   23.2288   27.1938   38.0617 C   0  0  0  0  0  0  0  0  0  0  0  0
   22.8794   27.3938   36.7371 C   0  0  0  0  0  0  0  0  0  0  0  0
   23.4351   26.5628   35.7559 C   0  0  0  0  0  0  0  0  0  0  0  0
   24.3040   25.5775   36.1160 C   0  0  0  0  0  0  0  0  0  0  0  0
   24.6404   25.3967   37.4633 C   0  0  0  0  0  0  0  0  0  0  0  0
   23.0049   26.8442   34.3623 C   0  0  0  0  0  0  0  0  0  0  0  0
   24.1011   26.9106   33.4496 N   0  0  0  0  0  0  0  0  0  0  0  0
   23.9932   26.0571   32.3106 C   0  0  0  0  0  0  0  0  0  0  0  0
   23.0455   26.6000   31.2634 C   0  0  0  0  0  0  0  0  0  0  0  0
   23.0920   28.0239   31.1586 N   0  0  0  0  0  0  0  0  0  0  0  0
   21.8664   28.7073   31.4445 C   0  0  0  0  0  0  0  0  0  0  0  0
   24.2592   28.6389   31.7138 C   0  0  0  0  0  0  0  0  0  0  0  0
   24.5329   28.2396   33.1488 C   0  0  0  0  0  0  0  0  0  0  0  0
   25.4805   25.5135   40.1890 O   0  0  0  0  0  0  0  0  0  0  0  0
   25.5519   26.0751   46.1744 C   0  0  0  0  0  0  0  0  0  0  0  0
  1  2  2  0
  2  3  1  0
  3  4  2  0
  4  5  1  0
  1  6  1  0
  5  6  2  0
  3  7  1  0
  7  8  2  0
  8  9  1  0
  9 10  2  0
 10 11  1  0
  7 12  1  0
 11 12  2  0
 11 13  1  0
 13 14  1  0
 14 15  2  0
 15 16  1  0
 16 17  2  0
 17 18  1  0
 14 19  1  0
 18 19  2  0
 18 20  1  0
 20 21  1  0
 21 22  1  0
 22 23  2  0
 23 24  1  0
 24 25  2  0
 25 26  1  0
 22 27  1  0
 26 27  2  0
 25 28  1  0
 28 29  1  0
 29 30  1  0
 30 31  1  0
 31 32  1  0
 32 33  1  0
 32 34  1  0
 29 35  1  0
 34 35  1  0
 21 36  2  0
 15 37  1  0
M  END
$$$$
