1T46_STI_A_3
     RDKit          3D

 37 41  0  0  0  0  0  0  0  0999 V2000
   32.2441   24.5568   47.6334 C   0  0  0  0  0  0  0  0  0  0  0  0
   31.4775   25.2039   46.6693 C   0  0  0  0  0  0  0  0  0  0  0  0
   30.1900   24.7945   46.3921 C   0  0  0  0  0  0  0  0  0  0  0  0
   29.7127   23.7217   47.1153 C   0  0  0  0  0  0  0  0  0  0  0  0
   30.4623   23.1045   48.0440 N   0  0  0  0  0  0  0  0  0  0  0  0
   31.7195   23.4730   48.3428 C   0  0  0  0  0  0  0  0  0  0  0  0
   29.4089   25.4922   45.3798 C   0  0  0  0  0  0  0  0  0  0  0  0
   29.8588   26.6324   44.7567 C   0  0  0  0  0  0  0  0  0  0  0  0
   29.0304   27.1993   43.8133 C   0  0  0  0  0  0  0  0  0  0  0  0
   27.8430   26.6592   43.5217 N   0  0  0  0  0  0  0  0  0  0  0  0
   27.3876   25.5519   44.1158 C   0  0  0  0  0  0  0  0  0  0  0  0
   28.2191   25.0007   45.0487 N   0  0  0  0  0  0  0  0  0  0  0  0
   26.1515   24.9293   43.8568 N   0  0  0  0  0  0  0  0  0  0  0  0
   25.0616   25.4583   43.1624 C   0  0  0  0  0  0  0  0  0  0  0  0
   24.1124   26.2276   43.8613 C   0  0  0  0  0  0  0  0  0  0  0  0
   23.0177   26.7712   43.2243 C   0  0  0  0  0  0  0  0  0  0  0  0
   22.7894   26.5961   41.8786 C   0  0  0  0  0  0  0  0  0  0  0  0
   23.7070   25.8469   41.1791 C   0  0  0  0  0  0  0  0  0  0  0  0
   24.8058   25.3012   41.8197 C   0  0  0  0  0  0  0  0  0  0  0  0
   23.5200   25.6374   39.7838 N   0  0  0  0  0  0  0  0  0  0  0  0
   24.3880   26.3490   38.9102 C   0  0  0  0  0  0  0  0  0  0  0  0
   24.2717   26.3411   37.4669 C   0  0  0  0  0  0  0  0  0  0  0  0
   25.0897   27.1883   36.7516 C   0  0  0  0  0  0  0  0  0  0  0  0
   25.0517   27.2533   35.3692 C   0  0  0  0  0  0  0  0  0  0  0  0
   24.1537   26.4318   34.6759 C   0  0  0  0  0  0  0  0  0  0  0  0
   23.3369   25.5878   35.3659 C   0  0  0  0  0  0  0  0  0  0  0  0
   23.3956   25.5420   36.7643 C   0  0  0  0  0  0  0  0  0  0  0  0
   24.1764   26.5665   33.1968 C   0  0  0  0  0  0  0  0  0  0  0  0
   22.8719   26.7211   32.6370 N   0  0  0  0  0  0  0  0  0  0  0  0
   22.0289   27.6528   33.3140 C   0  0  0  0  0  0  0  0  0  0  0  0
   22.3732   29.0907   32.9923 C   0  0  0  0  0  0  0  0  0  0  0  0
   22.7908   29.2710   31.6382 N   0  0  0  0  0  0  0  0  0  0  0  0
   24.1212   29.7702   31.4606 C   0  0  0  0  0  0  0  0  0  0  0  0
   22.4269   28.2160   30.7417 C   0  0  0  0  0  0  0  0  0  0  0  0
   22.8565   26.8423   31.2128 C   0  0  0  0  0  0  0  0  0  0  0  0
   25.3120   27.0250   39.4304 O   0  0  0  0  0  0  0  0  0  0  0  0
   24.2939   26.4625   45.3307 C   0  0  0  0  0  0  0  0  0  0  0  0
  1  2  2  0
  2  3  1  0
  3  4  2  0
  4  5  1  0
  1  6  1  0
  5  6  2  0
  3  7  1  0
  7  8  2  0
  8  9  1  0
  9 10  2  0
 10 11  1  0
  7 12  1  0
 11 12  2  0
 11 13  1  0
 13 14  1  0
 14 15  2  0
 15 16  1  0
 16 17  2  0
 17 18  1  0
 14 19  1  0
 18 19  2  0
 18 20  1  0
 20 21  1  0
 21 22  1  0
 22 23  2  0
 23 24  1  0
 24 25  2  0
 25 26  1  0
 22 27  1  0
 26 27  2  0
 25 28  1  0
 28 29  1  0
 29 30  1  0
 30 31  1  0
 31 32  1  0
 32 33  1  0
 32 34  1  0
 29 35  1  0
 34 35  1  0
 21 36  2  0
 15 37  1  0
M  END
$$$$
