1T46_STI_A_3
     RDKit          3D

 37 41  0  0  0  0  0  0  0  0999 V2000
   33.4045   22.6741   48.8069 C   0  0  0  0  0  0  0  0  0  0  0  0
   33.7660   23.9423   48.3631 C   0  0  0  0  0  0  0  0  0  0  0  0
   32.9514   24.6556   47.5089 C   0  0  0  0  0  0  0  0  0  0  0  0
   31.7743   24.0481   47.1251 C   0  0  0  0  0  0  0  0  0  0  0  0
   31.4357   22.8227   47.5602 N   0  0  0  0  0  0  0  0  0  0  0  0
   32.2014   22.0965   48.3921 C   0  0  0  0  0  0  0  0  0  0  0  0
   33.3530   25.9826   47.0625 C   0  0  0  0  0  0  0  0  0  0  0  0
   34.5136   26.5845   47.4883 C   0  0  0  0  0  0  0  0  0  0  0  0
   34.7867   27.8403   46.9923 C   0  0  0  0  0  0  0  0  0  0  0  0
   33.9554   28.4410   46.1351 N   0  0  0  0  0  0  0  0  0  0  0  0
   32.8229   27.8732   45.7090 C   0  0  0  0  0  0  0  0  0  0  0  0
   32.5649   26.6285   46.2089 N   0  0  0  0  0  0  0  0  0  0  0  0
   31.9047   28.4459   44.8082 N   0  0  0  0  0  0  0  0  0  0  0  0
   31.7763   29.7937   44.4665 C   0  0  0  0  0  0  0  0  0  0  0  0
   30.5016   30.3024   44.1537 C   0  0  0  0  0  0  0  0  0  0  0  0
   30.3199   31.6243   43.8084 C   0  0  0  0  0  0  0  0  0  0  0  0
   31.3644   32.5181   43.7496 C   0  0  0  0  0  0  0  0  0  0  0  0
   32.6179   32.0387   44.0524 C   0  0  0  0  0  0  0  0  0  0  0  0
   32.7995   30.7110   44.3987 C   0  0  0  0  0  0  0  0  0  0  0  0
   33.7331   32.9220   44.0097 N   0  0  0  0  0  0  0  0  0  0  0  0
   34.7538   32.7073   44.9768 C   0  0  0  0  0  0  0  0  0  0  0  0
   35.9561   33.5078   45.0791 C   0  0  0  0  0  0  0  0  0  0  0  0
   36.0517   34.6283   44.2829 C   0  0  0  0  0  0  0  0  0  0  0  0
   37.1613   35.4558   44.3088 C   0  0  0  0  0  0  0  0  0  0  0  0
   38.2199   35.1443   45.1715 C   0  0  0  0  0  0  0  0  0  0  0  0
   38.1435   34.0406   45.9661 C   0  0  0  0  0  0  0  0  0  0  0  0
   37.0095   33.2203   45.9201 C   0  0  0  0  0  0  0  0  0  0  0  0
   39.3712   36.0822   45.1342 C   0  0  0  0  0  0  0  0  0  0  0  0
   39.1407   37.2048   44.2824 N   0  0  0  0  0  0  0  0  0  0  0  0
   37.8631   37.8242   44.4294 C   0  0  0  0  0  0  0  0  0  0  0  0
   37.7781   38.6994   45.6607 C   0  0  0  0  0  0  0  0  0  0  0  0
   39.0021   39.3796   45.9429 N   0  0  0  0  0  0  0  0  0  0  0  0
   39.6061   39.0722   47.2044 C   0  0  0  0  0  0  0  0  0  0  0  0
   39.9207   39.4623   44.8482 C   0  0  0  0  0  0  0  0  0  0  0  0
   40.2341   38.1229   44.2147 C   0  0  0  0  0  0  0  0  0  0  0  0
   34.5959   31.7616   45.7904 O   0  0  0  0  0  0  0  0  0  0  0  0
   29.3141   29.3885   44.1965 C   0  0  0  0  0  0  0  0  0  0  0  0
  1  2  2  0
  2  3  1  0
  3  4  2  0
  4  5  1  0
  1  6  1  0
  5  6  2  0
  3  7  1  0
  7  8  2  0
  8  9  1  0
  9 10  2  0
 10 11  1  0
  7 12  1  0
 11 12  2  0
 11 13  1  0
 13 14  1  0
 14 15  2  0
 15 16  1  0
 16 17  2  0
 17 18  1  0
 14 19  1  0
 18 19  2  0
 18 20  1  0
 20 21  1  0
 21 22  1  0
 22 23  2  0
 23 24  1  0
 24 25  2  0
 25 26  1  0
 22 27  1  0
 26 27  2  0
 25 28  1  0
 28 29  1  0
 29 30  1  0
 30 31  1  0
 31 32  1  0
 32 33  1  0
 32 34  1  0
 29 35  1  0
 34 35  1  0
 21 36  2  0
 15 37  1  0
M  END
$$$$
