1T46_STI_A_3
     RDKit          3D

 37 41  0  0  0  0  0  0  0  0999 V2000
   32.0493   22.7833   47.9460 C   0  0  0  0  0  0  0  0  0  0  0  0
   30.9212   23.0478   47.1758 C   0  0  0  0  0  0  0  0  0  0  0  0
   30.6668   24.3169   46.6996 C   0  0  0  0  0  0  0  0  0  0  0  0
   31.5822   25.2953   47.0265 C   0  0  0  0  0  0  0  0  0  0  0  0
   32.6681   25.0281   47.7712 N   0  0  0  0  0  0  0  0  0  0  0  0
   32.9509   23.8060   48.2532 C   0  0  0  0  0  0  0  0  0  0  0  0
   29.4798   24.5648   45.8929 C   0  0  0  0  0  0  0  0  0  0  0  0
   28.5768   23.5746   45.5849 C   0  0  0  0  0  0  0  0  0  0  0  0
   27.4909   23.9336   44.8171 C   0  0  0  0  0  0  0  0  0  0  0  0
   27.3287   25.1910   44.3937 N   0  0  0  0  0  0  0  0  0  0  0  0
   28.1945   26.1677   44.6819 C   0  0  0  0  0  0  0  0  0  0  0  0
   29.2661   25.7975   45.4437 N   0  0  0  0  0  0  0  0  0  0  0  0
   28.0852   27.5103   44.2720 N   0  0  0  0  0  0  0  0  0  0  0  0
   27.1821   28.0482   43.3528 C   0  0  0  0  0  0  0  0  0  0  0  0
   26.9782   29.4407   43.3279 C   0  0  0  0  0  0  0  0  0  0  0  0
   26.0971   30.0225   42.4419 C   0  0  0  0  0  0  0  0  0  0  0  0
   25.3707   29.2835   41.5366 C   0  0  0  0  0  0  0  0  0  0  0  0
   25.5572   27.9205   41.5464 C   0  0  0  0  0  0  0  0  0  0  0  0
   26.4420   27.3370   42.4366 C   0  0  0  0  0  0  0  0  0  0  0  0
   24.8327   27.1093   40.6284 N   0  0  0  0  0  0  0  0  0  0  0  0
   25.4335   26.8921   39.3576 C   0  0  0  0  0  0  0  0  0  0  0  0
   24.7011   26.8579   38.1089 C   0  0  0  0  0  0  0  0  0  0  0  0
   25.4268   26.7760   36.9404 C   0  0  0  0  0  0  0  0  0  0  0  0
   24.8173   26.7385   35.6979 C   0  0  0  0  0  0  0  0  0  0  0  0
   23.4192   26.7851   35.6263 C   0  0  0  0  0  0  0  0  0  0  0  0
   22.6850   26.8663   36.7708 C   0  0  0  0  0  0  0  0  0  0  0  0
   23.3268   26.9029   38.0149 C   0  0  0  0  0  0  0  0  0  0  0  0
   22.8482   26.7428   34.2557 C   0  0  0  0  0  0  0  0  0  0  0  0
   23.8416   26.8842   33.2397 N   0  0  0  0  0  0  0  0  0  0  0  0
   24.4717   25.6688   32.8356 C   0  0  0  0  0  0  0  0  0  0  0  0
   23.6021   24.8395   31.9161 C   0  0  0  0  0  0  0  0  0  0  0  0
   22.8201   25.6363   31.0250 N   0  0  0  0  0  0  0  0  0  0  0  0
   21.4005   25.4972   31.1519 C   0  0  0  0  0  0  0  0  0  0  0  0
   23.2727   26.9835   30.8541 C   0  0  0  0  0  0  0  0  0  0  0  0
   23.4552   27.7336   32.1570 C   0  0  0  0  0  0  0  0  0  0  0  0
   26.6787   26.7196   39.3237 O   0  0  0  0  0  0  0  0  0  0  0  0
   27.7347   30.3122   44.2846 C   0  0  0  0  0  0  0  0  0  0  0  0
  1  2  2  0
  2  3  1  0
  3  4  2  0
  4  5  1  0
  1  6  1  0
  5  6  2  0
  3  7  1  0
  7  8  2  0
  8  9  1  0
  9 10  2  0
 10 11  1  0
  7 12  1  0
 11 12  2  0
 11 13  1  0
 13 14  1  0
 14 15  2  0
 15 16  1  0
 16 17  2  0
 17 18  1  0
 14 19  1  0
 18 19  2  0
 18 20  1  0
 20 21  1  0
 21 22  1  0
 22 23  2  0
 23 24  1  0
 24 25  2  0
 25 26  1  0
 22 27  1  0
 26 27  2  0
 25 28  1  0
 28 29  1  0
 29 30  1  0
 30 31  1  0
 31 32  1  0
 32 33  1  0
 32 34  1  0
 29 35  1  0
 34 35  1  0
 21 36  2  0
 15 37  1  0
M  END
$$$$
