1T46_STI_A_3
     RDKit          3D

 37 41  0  0  0  0  0  0  0  0999 V2000
   28.5338   24.0768   45.6644 C   0  0  0  0  0  0  0  0  0  0  0  0
   29.4946   25.0831   45.6494 C   0  0  0  0  0  0  0  0  0  0  0  0
   30.6660   24.9586   46.3665 C   0  0  0  0  0  0  0  0  0  0  0  0
   30.8282   23.7954   47.0895 C   0  0  0  0  0  0  0  0  0  0  0  0
   29.8933   22.8304   47.0965 N   0  0  0  0  0  0  0  0  0  0  0  0
   28.7402   22.9140   46.4118 C   0  0  0  0  0  0  0  0  0  0  0  0
   31.6560   26.0263   46.3301 C   0  0  0  0  0  0  0  0  0  0  0  0
   31.5538   27.0986   45.4754 C   0  0  0  0  0  0  0  0  0  0  0  0
   32.5515   28.0465   45.5372 C   0  0  0  0  0  0  0  0  0  0  0  0
   33.5709   27.9226   46.3928 N   0  0  0  0  0  0  0  0  0  0  0  0
   33.6887   26.8884   47.2314 C   0  0  0  0  0  0  0  0  0  0  0  0
   32.6926   25.9566   47.1592 N   0  0  0  0  0  0  0  0  0  0  0  0
   34.7318   26.6958   48.1574 N   0  0  0  0  0  0  0  0  0  0  0  0
   35.9951   27.2907   48.1515 C   0  0  0  0  0  0  0  0  0  0  0  0
   37.0001   26.7720   48.9895 C   0  0  0  0  0  0  0  0  0  0  0  0
   38.2631   27.3227   49.0232 C   0  0  0  0  0  0  0  0  0  0  0  0
   38.6142   28.4029   48.2464 C   0  0  0  0  0  0  0  0  0  0  0  0
   37.6445   28.9233   47.4208 C   0  0  0  0  0  0  0  0  0  0  0  0
   36.3763   28.3698   47.3878 C   0  0  0  0  0  0  0  0  0  0  0  0
   37.9557   30.0391   46.5940 N   0  0  0  0  0  0  0  0  0  0  0  0
   38.0811   29.7846   45.2002 C   0  0  0  0  0  0  0  0  0  0  0  0
   38.4523   30.7861   44.2225 C   0  0  0  0  0  0  0  0  0  0  0  0
   38.8182   32.0313   44.6853 C   0  0  0  0  0  0  0  0  0  0  0  0
   39.1885   33.0541   43.8289 C   0  0  0  0  0  0  0  0  0  0  0  0
   39.1914   32.8156   42.4486 C   0  0  0  0  0  0  0  0  0  0  0  0
   38.8325   31.5909   41.9724 C   0  0  0  0  0  0  0  0  0  0  0  0
   38.4622   30.5737   42.8607 C   0  0  0  0  0  0  0  0  0  0  0  0
   39.5986   33.9666   41.6026 C   0  0  0  0  0  0  0  0  0  0  0  0
   40.1777   35.0299   42.3596 N   0  0  0  0  0  0  0  0  0  0  0  0
   41.1664   34.6294   43.3080 C   0  0  0  0  0  0  0  0  0  0  0  0
   42.4995   34.3180   42.6636 C   0  0  0  0  0  0  0  0  0  0  0  0
   42.7934   35.1723   41.5572 N   0  0  0  0  0  0  0  0  0  0  0  0
   42.9547   34.5179   40.2937 C   0  0  0  0  0  0  0  0  0  0  0  0
   42.0367   36.3863   41.5057 C   0  0  0  0  0  0  0  0  0  0  0  0
   40.5393   36.1733   41.5816 C   0  0  0  0  0  0  0  0  0  0  0  0
   37.8536   28.6147   44.7988 O   0  0  0  0  0  0  0  0  0  0  0  0
   36.6926   25.5948   49.8651 C   0  0  0  0  0  0  0  0  0  0  0  0
  1  2  2  0
  2  3  1  0
  3  4  2  0
  4  5  1  0
  1  6  1  0
  5  6  2  0
  3  7  1  0
  7  8  2  0
  8  9  1  0
  9 10  2  0
 10 11  1  0
  7 12  1  0
 11 12  2  0
 11 13  1  0
 13 14  1  0
 14 15  2  0
 15 16  1  0
 16 17  2  0
 17 18  1  0
 14 19  1  0
 18 19  2  0
 18 20  1  0
 20 21  1  0
 21 22  1  0
 22 23  2  0
 23 24  1  0
 24 25  2  0
 25 26  1  0
 22 27  1  0
 26 27  2  0
 25 28  1  0
 28 29  1  0
 29 30  1  0
 30 31  1  0
 31 32  1  0
 32 33  1  0
 32 34  1  0
 29 35  1  0
 34 35  1  0
 21 36  2  0
 15 37  1  0
M  END
$$$$
