1T46_STI_A_3
     RDKit          3D

 37 41  0  0  0  0  0  0  0  0999 V2000
   32.6508   24.1669   47.0281 C   0  0  0  0  0  0  0  0  0  0  0  0
   31.7942   24.9514   46.2622 C   0  0  0  0  0  0  0  0  0  0  0  0
   30.4829   24.5780   46.0546 C   0  0  0  0  0  0  0  0  0  0  0  0
   30.0751   23.3986   46.6417 C   0  0  0  0  0  0  0  0  0  0  0  0
   30.9114   22.6492   47.3794 N   0  0  0  0  0  0  0  0  0  0  0  0
   32.1946   22.9784   47.6047 C   0  0  0  0  0  0  0  0  0  0  0  0
   29.6072   25.4200   45.2510 C   0  0  0  0  0  0  0  0  0  0  0  0
   29.9588   26.6911   44.8622 C   0  0  0  0  0  0  0  0  0  0  0  0
   29.0470   27.3881   44.1004 C   0  0  0  0  0  0  0  0  0  0  0  0
   27.8741   26.8461   43.7581 N   0  0  0  0  0  0  0  0  0  0  0  0
   27.5135   25.6127   44.1257 C   0  0  0  0  0  0  0  0  0  0  0  0
   28.4270   24.9335   44.8805 N   0  0  0  0  0  0  0  0  0  0  0  0
   26.2983   24.9803   43.8000 N   0  0  0  0  0  0  0  0  0  0  0  0
   25.1746   25.5539   43.2015 C   0  0  0  0  0  0  0  0  0  0  0  0
   24.2750   26.2884   43.9968 C   0  0  0  0  0  0  0  0  0  0  0  0
   23.1500   26.8733   43.4566 C   0  0  0  0  0  0  0  0  0  0  0  0
   22.8418   26.7754   42.1191 C   0  0  0  0  0  0  0  0  0  0  0  0
   23.7100   26.0611   41.3261 C   0  0  0  0  0  0  0  0  0  0  0  0
   24.8393   25.4738   41.8695 C   0  0  0  0  0  0  0  0  0  0  0  0
   23.4398   25.9312   39.9348 N   0  0  0  0  0  0  0  0  0  0  0  0
   24.5486   26.0682   39.0544 C   0  0  0  0  0  0  0  0  0  0  0  0
   24.4444   26.0569   37.6102 C   0  0  0  0  0  0  0  0  0  0  0  0
   25.5900   25.8112   36.8852 C   0  0  0  0  0  0  0  0  0  0  0  0
   25.5915   25.7809   35.5011 C   0  0  0  0  0  0  0  0  0  0  0  0
   24.3908   26.0069   34.8162 C   0  0  0  0  0  0  0  0  0  0  0  0
   23.2480   26.2516   35.5159 C   0  0  0  0  0  0  0  0  0  0  0  0
   23.2743   26.2768   36.9158 C   0  0  0  0  0  0  0  0  0  0  0  0
   24.4821   25.9591   33.3344 C   0  0  0  0  0  0  0  0  0  0  0  0
   23.2627   26.3366   32.6943 N   0  0  0  0  0  0  0  0  0  0  0  0
   22.6028   27.4656   33.2663 C   0  0  0  0  0  0  0  0  0  0  0  0
   23.2506   28.7771   32.8790 C   0  0  0  0  0  0  0  0  0  0  0  0
   23.7535   28.7733   31.5420 N   0  0  0  0  0  0  0  0  0  0  0  0
   25.1647   28.9773   31.4095 C   0  0  0  0  0  0  0  0  0  0  0  0
   23.2175   27.7545   30.6912 C   0  0  0  0  0  0  0  0  0  0  0  0
   23.3332   26.3585   31.2668 C   0  0  0  0  0  0  0  0  0  0  0  0
   25.6875   26.2071   39.5692 O   0  0  0  0  0  0  0  0  0  0  0  0
   24.5443   26.4395   45.4637 C   0  0  0  0  0  0  0  0  0  0  0  0
  1  2  2  0
  2  3  1  0
  3  4  2  0
  4  5  1  0
  1  6  1  0
  5  6  2  0
  3  7  1  0
  7  8  2  0
  8  9  1  0
  9 10  2  0
 10 11  1  0
  7 12  1  0
 11 12  2  0
 11 13  1  0
 13 14  1  0
 14 15  2  0
 15 16  1  0
 16 17  2  0
 17 18  1  0
 14 19  1  0
 18 19  2  0
 18 20  1  0
 20 21  1  0
 21 22  1  0
 22 23  2  0
 23 24  1  0
 24 25  2  0
 25 26  1  0
 22 27  1  0
 26 27  2  0
 25 28  1  0
 28 29  1  0
 29 30  1  0
 30 31  1  0
 31 32  1  0
 32 33  1  0
 32 34  1  0
 29 35  1  0
 34 35  1  0
 21 36  2  0
 15 37  1  0
M  END
$$$$
