7XEK_9YX_A_501
     RDKit          3D

 37 38  0  0  0  0  0  0  0  0999 V2000
   38.6603  -32.7766  -37.7602 O   0  0  0  0  0  0  0  0  0  0  0  0
   38.0525  -33.6182  -36.6319 P   0  0  2  0  0  5  0  0  0  0  0  0
   37.0347  -32.9428  -35.7230 O   0  0  0  0  0  0  0  0  0  0  0  0
   39.1764  -34.3999  -35.9781 O   0  0  0  0  0  0  0  0  0  0  0  0
   37.1317  -34.8003  -37.4209 O   0  0  0  0  0  0  0  0  0  0  0  0
   35.6890  -34.4538  -37.6880 C   0  0  0  0  0  0  0  0  0  0  0  0
   35.3931  -33.5188  -36.5629 C   0  0  0  0  0  0  0  0  0  0  0  0
   36.3952  -33.1943  -35.6914 C   0  0  0  0  0  0  0  0  0  0  0  0
   36.1746  -32.3726  -34.6035 N   0  0  0  0  0  0  0  0  0  0  0  0
   34.9778  -31.7880  -34.3341 C   0  0  0  0  0  0  0  0  0  0  0  0
   34.8912  -30.8676  -33.1923 C   0  0  0  0  0  0  0  0  0  0  0  0
   33.9525  -32.0532  -35.2416 C   0  0  0  0  0  0  0  0  0  0  0  0
   32.7747  -31.4781  -35.0615 O   0  0  0  0  0  0  0  0  0  0  0  0
   34.1086  -32.9495  -36.3497 C   0  0  0  0  0  0  0  0  0  0  0  0
   33.0603  -33.3920  -37.2007 C   0  0  1  0  0  0  0  0  0  0  0  0
   33.1490  -34.9047  -37.3812 N   0  0  0  0  0  0  0  0  0  0  0  0
   31.2809  -33.1780  -36.9182 S   0  0  0  0  0  0  0  0  0  0  0  0
   30.6709  -34.5068  -38.0055 C   0  0  0  0  0  0  0  0  0  0  0  0
   31.9926  -35.5132  -38.1088 C   0  0  2  0  0  0  0  0  0  0  0  0
   31.7590  -36.9434  -37.5261 C   0  0  0  0  0  0  0  0  0  0  0  0
   31.0744  -37.0734  -36.5009 O   0  0  0  0  0  0  0  0  0  0  0  0
   32.2888  -37.9314  -38.0710 O   0  0  0  0  0  0  0  0  0  0  0  0
   37.4695  -32.2376  -35.2184 H   0  0  0  0  0  0  0  0  0  0  0  0
   39.7583  -33.7897  -35.4986 H   0  0  0  0  0  0  0  0  0  0  0  0
   35.0649  -35.3221  -37.6488 H   0  0  0  0  0  0  0  0  0  0  0  0
   35.5131  -34.0378  -38.6580 H   0  0  0  0  0  0  0  0  0  0  0  0
   37.3417  -33.5733  -35.8507 H   0  0  0  0  0  0  0  0  0  0  0  0
   35.8243  -30.8601  -32.6686 H   0  0  0  0  0  0  0  0  0  0  0  0
   34.1140  -31.1910  -32.5316 H   0  0  0  0  0  0  0  0  0  0  0  0
   34.6721  -29.8814  -33.5448 H   0  0  0  0  0  0  0  0  0  0  0  0
   32.6460  -30.8882  -34.3450 H   0  0  0  0  0  0  0  0  0  0  0  0
   33.2881  -32.7001  -37.9843 H   0  0  0  0  0  0  0  0  0  0  0  0
   33.2043  -35.3328  -36.4570 H   0  0  0  0  0  0  0  0  0  0  0  0
   30.3975  -34.1259  -38.9674 H   0  0  0  0  0  0  0  0  0  0  0  0
   29.7904  -34.9913  -37.6384 H   0  0  0  0  0  0  0  0  0  0  0  0
   32.1863  -35.6220  -39.1554 H   0  0  0  0  0  0  0  0  0  0  0  0
   30.6817  -36.3223  -36.1014 H   0  0  0  0  0  0  0  0  0  0  0  0
  1  2  2  0
  2  3  1  1
  2  4  1  0
  2  5  1  0
  5  6  1  0
  6  7  1  0
  7  8  4  0
  8  9  4  0
  9 10  4  0
 10 11  1  0
 10 12  4  0
 12 13  1  0
  7 14  4  0
 12 14  4  0
 15 14  1  0
 15 16  1  0
 15 17  1  0
 17 18  1  0
 18 19  1  0
 16 19  1  0
 19 20  1  0
 20 21  1  0
 20 22  2  0
  3 23  1  0
  4 24  1  0
  6 25  1  0
  6 26  1  0
  8 27  1  0
 11 28  1  0
 11 29  1  0
 11 30  1  0
 13 31  1  0
 15 32  1  6
 16 33  1  0
 18 34  1  0
 18 35  1  0
 19 36  1  6
 21 37  1  0
M  END
