1R55_097_A_518
     RDKit          3D

 52 51  0  0  0  0  0  0  0  0999 V2000
    7.9123   13.4562   22.4976 N   0  0  0  0  0  0  0  0  0  0  0  0
   10.4975   12.9178   26.7139 C   0  0  2  0  0  0  0  0  0  0  0  0
    8.6389   11.1187   19.8378 O   0  0  0  0  0  0  0  0  0  0  0  0
    8.2838   14.6602   23.1920 C   0  0  0  0  0  0  0  0  0  0  0  0
    6.5434   12.3763   28.6003 O   0  0  0  0  0  0  0  0  0  0  0  0
    8.4050   13.1223   21.1528 C   0  0  1  0  0  0  0  0  0  0  0  0
    9.8268   13.7328   20.8901 C   0  0  2  0  0  0  0  0  0  0  0  0
    9.7715   15.2664   21.0687 C   0  0  1  0  0  0  0  0  0  0  0  0
   10.2711   13.4428   19.4378 C   0  0  1  0  0  0  0  0  0  0  0  0
    8.3593   11.6210   20.9612 C   0  0  0  0  0  0  0  0  0  0  0  0
    7.5794    9.3821   21.8314 C   0  0  1  0  0  0  0  0  0  0  0  0
    7.4247   12.8742   27.7004 N   0  0  0  0  0  0  0  0  0  0  0  0
    7.0277   13.9005   26.7864 C   0  0  0  0  0  0  0  0  0  0  0  0
    6.5178   14.9663   27.2269 O   0  0  0  0  0  0  0  0  0  0  0  0
    7.2003   13.7119   25.2994 C   0  0  1  0  0  0  0  0  0  0  0  0
    5.9436   13.8255   24.6807 O   0  0  0  0  0  0  0  0  0  0  0  0
    8.1586   14.7744   24.6974 C   0  0  1  0  0  0  0  0  0  0  0  0
    9.5448   14.9113   25.3929 C   0  0  1  0  0  0  0  0  0  0  0  0
   10.4920   13.6774   25.3783 C   0  0  1  0  0  0  0  0  0  0  0  0
   11.9238   14.1292   25.0509 C   0  0  1  0  0  0  0  0  0  0  0  0
    8.7469   15.6403   22.5471 O   0  0  0  0  0  0  0  0  0  0  0  0
   10.8893   13.1613   21.8564 C   0  0  1  0  0  0  0  0  0  0  0  0
    7.9742   10.7681   22.0479 N   0  0  0  0  0  0  0  0  0  0  0  0
    7.2755   12.7798   22.9729 H   0  0  0  0  0  0  0  0  0  0  0  0
   11.0843   11.9785   26.6248 H   0  0  0  0  0  0  0  0  0  0  0  0
    9.4764   12.6118   27.0017 H   0  0  0  0  0  0  0  0  0  0  0  0
   10.9467   13.5346   27.5211 H   0  0  0  0  0  0  0  0  0  0  0  0
    6.6347   11.3920   28.5273 H   0  0  0  0  0  0  0  0  0  0  0  0
    7.7100   13.5563   20.4002 H   0  0  0  0  0  0  0  0  0  0  0  0
    9.8088   15.7779   20.0827 H   0  0  0  0  0  0  0  0  0  0  0  0
    8.8419   15.5773   21.5877 H   0  0  0  0  0  0  0  0  0  0  0  0
   10.6307   15.6247   21.6763 H   0  0  0  0  0  0  0  0  0  0  0  0
   11.2907   13.0002   19.4177 H   0  0  0  0  0  0  0  0  0  0  0  0
    9.5850   12.7216   18.9451 H   0  0  0  0  0  0  0  0  0  0  0  0
   10.2878   14.3787   18.8387 H   0  0  0  0  0  0  0  0  0  0  0  0
    6.7191    9.3412   21.1305 H   0  0  0  0  0  0  0  0  0  0  0  0
    8.4316    8.8097   21.4085 H   0  0  0  0  0  0  0  0  0  0  0  0
    7.2792    8.9202   22.7955 H   0  0  0  0  0  0  0  0  0  0  0  0
    8.4038   12.5109   27.6949 H   0  0  0  0  0  0  0  0  0  0  0  0
    7.5950   12.6969   25.1056 H   0  0  0  0  0  0  0  0  0  0  0  0
    5.7604   12.9578   24.2331 H   0  0  0  0  0  0  0  0  0  0  0  0
    7.6507   15.7500   24.8802 H   0  0  0  0  0  0  0  0  0  0  0  0
   10.0609   15.7461   24.8669 H   0  0  0  0  0  0  0  0  0  0  0  0
    9.4156   15.2699   26.4365 H   0  0  0  0  0  0  0  0  0  0  0  0
   10.1959   12.9743   24.5773 H   0  0  0  0  0  0  0  0  0  0  0  0
   12.0075   14.3999   23.9765 H   0  0  0  0  0  0  0  0  0  0  0  0
   12.2067   15.0096   25.6677 H   0  0  0  0  0  0  0  0  0  0  0  0
   12.6452   13.3067   25.2452 H   0  0  0  0  0  0  0  0  0  0  0  0
   11.6784   12.6105   21.3041 H   0  0  0  0  0  0  0  0  0  0  0  0
   11.3844   13.9829   22.4181 H   0  0  0  0  0  0  0  0  0  0  0  0
   10.4316   12.4769   22.6003 H   0  0  0  0  0  0  0  0  0  0  0  0
    7.9626   11.1454   23.0222 H   0  0  0  0  0  0  0  0  0  0  0  0
  1  4  1  0
  6  1  1  0
  7  6  1  1
  7  8  1  0
  7  9  1  0
  3 10  2  0
  6 10  1  0
  5 12  1  0
 12 13  1  0
 13 14  2  0
 13 15  1  0
 15 16  1  0
  4 17  1  0
 15 17  1  0
 17 18  1  0
  2 19  1  0
 18 19  1  0
 19 20  1  0
  4 21  2  0
  7 22  1  0
 10 23  1  0
 11 23  1  0
  1 24  1  0
  2 25  1  6
  2 26  1  0
  2 27  1  0
  5 28  1  0
  6 29  1  6
  8 30  1  6
  8 31  1  0
  8 32  1  0
  9 33  1  1
  9 34  1  0
  9 35  1  0
 11 36  1  6
 11 37  1  0
 11 38  1  0
 12 39  1  0
 15 40  1  1
 16 41  1  0
 17 42  1  6
 18 43  1  6
 18 44  1  0
 19 45  1  6
 20 46  1  6
 20 47  1  0
 20 48  1  0
 22 49  1  6
 22 50  1  0
 22 51  1  0
 23 52  1  0
M  END
