
     RDKit          3D

  9  8  0  0  0  0  0  0  0  0999 V2000
   -5.2396    5.8844   32.4190 C   0  0  0  0  0  0  0  0  0  0  0  0
   -6.3400    6.8321   32.2780 N   0  0  0  0  0  0  0  0  0  0  0  0
   -3.8791    6.4690   32.0306 C   0  0  0  0  0  0  0  0  0  0  0  0
   -1.9506    6.7407   33.5495 N   0  0  0  0  0  0  0  0  0  0  0  0
   -2.7084    5.7811   32.7364 C   0  0  0  0  0  0  0  0  0  0  0  0
    2.4473    9.0666   33.5627 N   0  0  0  0  0  0  0  0  0  0  0  0
   -0.9061    7.4427   32.7971 C   0  0  0  0  0  0  0  0  0  0  0  0
    0.0898    8.2329   33.6524 C   0  0  0  0  0  0  0  0  0  0  0  0
    1.1650    8.9910   32.8678 C   0  0  0  0  0  0  0  0  0  0  0  0
  1  2  1  0
  1  3  1  0
  4  5  1  0
  3  5  1  0
  4  7  1  0
  7  8  1  0
  6  9  1  0
  8  9  1  0
M  END
