7B2C_TP7_A_1204
     RDKit          3D

 21 20  0  0  0  0  0  0  0  0999 V2000
   27.0300  -28.0787   15.1350 N   0  0  0  0  0  0  0  0  0  0  0  0
   24.7643  -28.3459   11.9504 P   0  0  2  0  0  0  0  0  0  0  0  0
   25.5215  -29.3363   11.0761 O   0  0  0  0  0  0  0  0  0  0  0  0
   23.1852  -28.2729   11.3555 O   0  0  0  0  0  0  0  0  0  0  0  0
   25.5345  -26.8534   11.7797 O   0  0  0  0  0  0  0  0  0  0  0  0
   24.8202  -28.9284   13.5252 O   0  0  0  0  0  0  0  0  0  0  0  0
   25.9021  -29.7700   13.7691 C   0  0  1  0  0  0  0  0  0  0  0  0
   27.4450  -30.4349   15.5315 C   0  0  0  0  0  0  0  0  0  0  0  0
   27.1461  -31.3872   16.4908 O   0  0  0  0  0  0  0  0  0  0  0  0
   28.5705  -30.4258   14.9750 O   0  0  0  0  0  0  0  0  0  0  0  0
   26.4076  -29.4097   15.1620 C   0  0  1  0  0  0  0  0  0  0  0  0
   25.4843  -31.2235   13.7941 C   0  0  0  0  0  0  0  0  0  0  0  0
   25.8192  -27.3593   16.9301 O   0  0  0  0  0  0  0  0  0  0  0  0
   26.6218  -27.0561   16.0394 C   0  0  0  0  0  0  0  0  0  0  0  0
   27.2017  -25.7062   15.8296 C   0  0  0  0  0  0  0  0  0  0  0  0
   26.7064  -24.7041   16.8122 C   0  0  0  0  0  0  0  0  0  0  0  0
   25.9981  -23.5208   16.2440 C   0  0  0  0  0  0  0  0  0  0  0  0
   25.5560  -22.5231   17.2591 C   0  0  0  0  0  0  0  0  0  0  0  0
   24.9185  -21.2853   16.7130 C   0  0  0  0  0  0  0  0  0  0  0  0
   24.4190  -20.4270   17.8553 C   0  0  0  0  0  0  0  0  0  0  0  0
   23.7276  -18.8633   17.2512 S   0  0  0  0  0  0  0  0  0  0  0  0
  2  3  2  0
  2  4  1  6
  2  5  1  0
  2  6  1  0
  6  7  1  0
  8  9  1  0
  8 10  2  0
 11  1  1  6
  7 11  1  0
  8 11  1  0
  7 12  1  1
  1 14  1  0
 13 14  2  0
 14 15  1  0
 15 16  1  0
 16 17  1  0
 17 18  1  0
 18 19  1  0
 19 20  1  0
 20 21  1  0
M  END
$$$$
