1K3U_IAD_A_801
     RDKit          3D

 21 22  0  0  0  0  0  0  0  0999 V2000
   54.3559   -0.3445   28.2024 O   0  0  0  0  0  0  0  0  0  0  0  0
   54.6461    0.1399   26.9527 C   0  0  0  0  0  0  0  0  0  0  0  0
   55.5987    0.9761   26.8693 O   0  0  0  0  0  0  0  0  0  0  0  0
   53.9605   -0.2171   25.7068 C   0  0  0  0  0  0  0  0  0  0  0  0
   54.4417    0.6652   24.5804 C   0  0  1  0  0  0  0  0  0  0  0  0
   53.6047    0.3680   23.3575 C   0  0  0  0  0  0  0  0  0  0  0  0
   53.9566   -0.5160   22.5282 O   0  0  0  0  0  0  0  0  0  0  0  0
   52.4370    1.0826   23.1546 O   0  0  0  0  0  0  0  0  0  0  0  0
   54.3025    2.0621   24.9364 N   0  0  0  0  0  0  0  0  0  0  0  0
   55.2348    2.9869   24.3899 C   0  0  0  0  0  0  0  0  0  0  0  0
   56.1584    2.6483   23.5906 O   0  0  0  0  0  0  0  0  0  0  0  0
   55.1157    4.3993   24.7744 C   0  0  0  0  0  0  0  0  0  0  0  0
   56.1533    5.2595   24.1908 C   0  0  0  0  0  0  0  0  0  0  0  0
   55.8928    6.1371   23.1317 C   0  0  0  0  0  0  0  0  0  0  0  0
   57.0484    6.7895   22.8193 N   0  0  0  0  0  0  0  0  0  0  0  0
   57.4794    5.3992   24.5030 C   0  0  0  0  0  0  0  0  0  0  0  0
   58.2549    4.7719   25.4667 C   0  0  0  0  0  0  0  0  0  0  0  0
   58.0354    6.3554   23.6447 C   0  0  0  0  0  0  0  0  0  0  0  0
   59.3800    6.7015   23.7354 C   0  0  0  0  0  0  0  0  0  0  0  0
   60.1540    6.0712   24.7020 C   0  0  0  0  0  0  0  0  0  0  0  0
   59.5826    5.1264   25.5427 C   0  0  0  0  0  0  0  0  0  0  0  0
  1  2  1  0
  2  3  2  0
  2  4  1  0
  5  4  1  1
  5  6  1  0
  6  7  2  0
  6  8  1  0
  5  9  1  0
  9 10  1  0
 10 11  2  0
 10 12  1  0
 12 13  1  0
 13 14  2  0
 14 15  1  0
 13 16  1  0
 16 17  2  0
 15 18  1  0
 16 18  1  0
 18 19  2  0
 19 20  1  0
 17 21  1  0
 20 21  2  0
M  END
$$$$
