1K3U_IAD_A_801
     RDKit          3D

 21 22  0  0  0  0  0  0  0  0999 V2000
   91.3921   10.5610    0.7127 O   0  0  0  0  0  0  0  0  0  0  0  0
   91.0921   11.1378   -0.4947 C   0  0  0  0  0  0  0  0  0  0  0  0
   91.6883   12.2241   -0.7746 O   0  0  0  0  0  0  0  0  0  0  0  0
   90.1493   10.6184   -1.4902 C   0  0  0  0  0  0  0  0  0  0  0  0
   89.9872   11.6104   -2.6163 C   0  0  1  0  0  0  0  0  0  0  0  0
   89.5627   10.8542   -3.8541 C   0  0  0  0  0  0  0  0  0  0  0  0
   88.3444   10.6204   -4.0871 O   0  0  0  0  0  0  0  0  0  0  0  0
   90.5335   10.4163   -4.7380 O   0  0  0  0  0  0  0  0  0  0  0  0
   88.9814   12.5970   -2.2812 N   0  0  0  0  0  0  0  0  0  0  0  0
   89.3251   13.6095   -1.3432 C   0  0  0  0  0  0  0  0  0  0  0  0
   90.5126   13.8155   -0.9509 O   0  0  0  0  0  0  0  0  0  0  0  0
   88.2480   14.4524   -0.8081 C   0  0  0  0  0  0  0  0  0  0  0  0
   88.6419   15.2370    0.3693 C   0  0  0  0  0  0  0  0  0  0  0  0
   89.9794   15.5222    0.6683 C   0  0  0  0  0  0  0  0  0  0  0  0
   90.0163   16.2616    1.8131 N   0  0  0  0  0  0  0  0  0  0  0  0
   87.8847   15.8167    1.3522 C   0  0  0  0  0  0  0  0  0  0  0  0
   86.5111   15.8430    1.5418 C   0  0  0  0  0  0  0  0  0  0  0  0
   88.7461   16.4557    2.2522 C   0  0  0  0  0  0  0  0  0  0  0  0
   88.2472   17.1335    3.3603 C   0  0  0  0  0  0  0  0  0  0  0  0
   86.8706   17.1579    3.5472 C   0  0  0  0  0  0  0  0  0  0  0  0
   86.0349   16.5180    2.6426 C   0  0  0  0  0  0  0  0  0  0  0  0
  1  2  1  0
  2  3  2  0
  2  4  1  0
  5  4  1  1
  5  6  1  0
  6  7  2  0
  6  8  1  0
  5  9  1  0
  9 10  1  0
 10 11  2  0
 10 12  1  0
 12 13  1  0
 13 14  2  0
 14 15  1  0
 13 16  1  0
 16 17  2  0
 15 18  1  0
 16 18  1  0
 18 19  2  0
 19 20  1  0
 17 21  1  0
 20 21  2  0
M  END
$$$$
