1K3U_IAD_A_801
     RDKit          3D

 21 22  0  0  0  0  0  0  0  0999 V2000
   77.7616   37.9787    1.7002 O   0  0  0  0  0  0  0  0  0  0  0  0
   76.9606   37.1257    0.9850 C   0  0  0  0  0  0  0  0  0  0  0  0
   77.1897   35.8827    1.1121 O   0  0  0  0  0  0  0  0  0  0  0  0
   75.8667   37.5144    0.0895 C   0  0  0  0  0  0  0  0  0  0  0  0
   75.2835   36.2915   -0.5761 C   0  0  1  0  0  0  0  0  0  0  0  0
   74.1968   36.7432   -1.5244 C   0  0  0  0  0  0  0  0  0  0  0  0
   73.0041   36.8721   -1.1320 O   0  0  0  0  0  0  0  0  0  0  0  0
   74.5265   37.0164   -2.8404 O   0  0  0  0  0  0  0  0  0  0  0  0
   76.3067   35.5798   -1.3135 N   0  0  0  0  0  0  0  0  0  0  0  0
   76.0341   34.2422   -1.7129 C   0  0  0  0  0  0  0  0  0  0  0  0
   74.9465   33.6482   -1.4467 O   0  0  0  0  0  0  0  0  0  0  0  0
   77.0662   33.5212   -2.4691 C   0  0  0  0  0  0  0  0  0  0  0  0
   76.6738   32.1587   -2.8522 C   0  0  0  0  0  0  0  0  0  0  0  0
   75.7113   31.9031   -3.8360 C   0  0  0  0  0  0  0  0  0  0  0  0
   75.5715   30.5528   -3.9607 N   0  0  0  0  0  0  0  0  0  0  0  0
   77.1035   30.9418   -2.3938 C   0  0  0  0  0  0  0  0  0  0  0  0
   78.0422   30.6175   -1.4257 C   0  0  0  0  0  0  0  0  0  0  0  0
   76.4132   29.9410   -3.0882 C   0  0  0  0  0  0  0  0  0  0  0  0
   76.6501   28.5954   -2.8255 C   0  0  0  0  0  0  0  0  0  0  0  0
   77.5911   28.2741   -1.8550 C   0  0  0  0  0  0  0  0  0  0  0  0
   78.2642   29.2819   -1.1788 C   0  0  0  0  0  0  0  0  0  0  0  0
  1  2  1  0
  2  3  2  0
  2  4  1  0
  5  4  1  6
  5  6  1  0
  6  7  2  0
  6  8  1  0
  5  9  1  0
  9 10  1  0
 10 11  2  0
 10 12  1  0
 12 13  1  0
 13 14  2  0
 14 15  1  0
 13 16  1  0
 16 17  2  0
 15 18  1  0
 16 18  1  0
 18 19  2  0
 19 20  1  0
 17 21  1  0
 20 21  2  0
M  END
$$$$
