1K3U_IAD_A_801
     RDKit          3D

 21 22  0  0  0  0  0  0  0  0999 V2000
   99.2493   12.1822   -3.9043 O   0  0  0  0  0  0  0  0  0  0  0  0
   98.0353   11.5447   -3.9239 C   0  0  0  0  0  0  0  0  0  0  0  0
   97.8293   10.6767   -3.0195 O   0  0  0  0  0  0  0  0  0  0  0  0
   96.9554   11.7715   -4.8894 C   0  0  0  0  0  0  0  0  0  0  0  0
   95.8129   10.8225   -4.6202 C   0  0  1  0  0  0  0  0  0  0  0  0
   96.2298    9.4417   -5.0719 C   0  0  0  0  0  0  0  0  0  0  0  0
   96.1429    9.1006   -6.2840 O   0  0  0  0  0  0  0  0  0  0  0  0
   96.7125    8.5466   -4.1331 O   0  0  0  0  0  0  0  0  0  0  0  0
   95.4981   10.7967   -3.2069 N   0  0  0  0  0  0  0  0  0  0  0  0
   94.1871   11.1770   -2.8073 C   0  0  0  0  0  0  0  0  0  0  0  0
   93.2731   11.4811   -3.6312 O   0  0  0  0  0  0  0  0  0  0  0  0
   93.8852   11.2172   -1.3706 C   0  0  0  0  0  0  0  0  0  0  0  0
   92.4580   11.3931   -1.0719 C   0  0  0  0  0  0  0  0  0  0  0  0
   91.9964   11.7619    0.1972 C   0  0  0  0  0  0  0  0  0  0  0  0
   90.6362   11.8427    0.1536 N   0  0  0  0  0  0  0  0  0  0  0  0
   91.3535   11.2554   -1.8698 C   0  0  0  0  0  0  0  0  0  0  0  0
   91.2390   10.9070   -3.2074 C   0  0  0  0  0  0  0  0  0  0  0  0
   90.2175   11.5369   -1.1014 C   0  0  0  0  0  0  0  0  0  0  0  0
   88.9441   11.4744   -1.6588 C   0  0  0  0  0  0  0  0  0  0  0  0
   88.8330   11.1251   -2.9991 C   0  0  0  0  0  0  0  0  0  0  0  0
   89.9722   10.8503   -3.7424 C   0  0  0  0  0  0  0  0  0  0  0  0
  1  2  1  0
  2  3  2  0
  2  4  1  0
  5  4  1  1
  5  6  1  0
  6  7  2  0
  6  8  1  0
  5  9  1  0
  9 10  1  0
 10 11  2  0
 10 12  1  0
 12 13  1  0
 13 14  2  0
 14 15  1  0
 13 16  1  0
 16 17  2  0
 15 18  1  0
 16 18  1  0
 18 19  2  0
 19 20  1  0
 17 21  1  0
 20 21  2  0
M  END
$$$$
