1K3U_IAD_A_801
     RDKit          3D

 21 22  0  0  0  0  0  0  0  0999 V2000
   86.0933   21.0303    9.2392 O   0  0  0  0  0  0  0  0  0  0  0  0
   86.1947   19.8255    8.5922 C   0  0  0  0  0  0  0  0  0  0  0  0
   86.4281   18.8059    9.3130 O   0  0  0  0  0  0  0  0  0  0  0  0
   86.0588   19.6054    7.1490 C   0  0  0  0  0  0  0  0  0  0  0  0
   86.3365   18.1591    6.8177 C   0  0  1  0  0  0  0  0  0  0  0  0
   87.7866   17.8727    7.1328 C   0  0  0  0  0  0  0  0  0  0  0  0
   88.1073   17.1447    8.1128 O   0  0  0  0  0  0  0  0  0  0  0  0
   88.7688   18.4226    6.3276 O   0  0  0  0  0  0  0  0  0  0  0  0
   85.4875   17.2876    7.6033 N   0  0  0  0  0  0  0  0  0  0  0  0
   84.3386   16.7312    6.9762 C   0  0  0  0  0  0  0  0  0  0  0  0
   84.0367   16.9503    5.7648 O   0  0  0  0  0  0  0  0  0  0  0  0
   83.4651   15.8628    7.7761 C   0  0  0  0  0  0  0  0  0  0  0  0
   82.4824   15.1180    6.9783 C   0  0  0  0  0  0  0  0  0  0  0  0
   81.1542   14.9510    7.3879 C   0  0  0  0  0  0  0  0  0  0  0  0
   80.5002   14.2208    6.4405 N   0  0  0  0  0  0  0  0  0  0  0  0
   82.6086   14.4766    5.7748 C   0  0  0  0  0  0  0  0  0  0  0  0
   83.7031   14.3307    4.9356 C   0  0  0  0  0  0  0  0  0  0  0  0
   81.3689   13.9174    5.4419 C   0  0  0  0  0  0  0  0  0  0  0  0
   81.2022   13.2006    4.2610 C   0  0  0  0  0  0  0  0  0  0  0  0
   82.3008   13.0564    3.4226 C   0  0  0  0  0  0  0  0  0  0  0  0
   83.5204   13.6191    3.7718 C   0  0  0  0  0  0  0  0  0  0  0  0
  1  2  1  0
  2  3  2  0
  2  4  1  0
  5  4  1  1
  5  6  1  0
  6  7  2  0
  6  8  1  0
  5  9  1  0
  9 10  1  0
 10 11  2  0
 10 12  1  0
 12 13  1  0
 13 14  2  0
 14 15  1  0
 13 16  1  0
 16 17  2  0
 15 18  1  0
 16 18  1  0
 18 19  2  0
 19 20  1  0
 17 21  1  0
 20 21  2  0
M  END
$$$$
