1K3U_IAD_A_801
     RDKit          3D

 21 22  0  0  0  0  0  0  0  0999 V2000
   83.7236   34.2581   11.9968 O   0  0  0  0  0  0  0  0  0  0  0  0
   83.3754   33.1879   12.7803 C   0  0  0  0  0  0  0  0  0  0  0  0
   84.0805   32.9834   13.8171 O   0  0  0  0  0  0  0  0  0  0  0  0
   82.2676   32.2599   12.5331 C   0  0  0  0  0  0  0  0  0  0  0  0
   82.0264   31.4052   13.7537 C   0  0  1  0  0  0  0  0  0  0  0  0
   81.5549   32.3039   14.8737 C   0  0  0  0  0  0  0  0  0  0  0  0
   80.3248   32.4483   15.1170 O   0  0  0  0  0  0  0  0  0  0  0  0
   82.4954   32.9735   15.6369 O   0  0  0  0  0  0  0  0  0  0  0  0
   81.0185   30.4024   13.4788 N   0  0  0  0  0  0  0  0  0  0  0  0
   81.3666   29.3229   12.6205 C   0  0  0  0  0  0  0  0  0  0  0  0
   82.5534   29.0997   12.2354 O   0  0  0  0  0  0  0  0  0  0  0  0
   80.2952   28.4287   12.1628 C   0  0  0  0  0  0  0  0  0  0  0  0
   80.7718   27.3090   11.3405 C   0  0  0  0  0  0  0  0  0  0  0  0
   80.2299   26.0219   11.4379 C   0  0  0  0  0  0  0  0  0  0  0  0
   80.8786   25.2137   10.5522 N   0  0  0  0  0  0  0  0  0  0  0  0
   81.7515   27.2542   10.3851 C   0  0  0  0  0  0  0  0  0  0  0  0
   82.5982   28.2384    9.8973 C   0  0  0  0  0  0  0  0  0  0  0  0
   81.8156   25.9443    9.8948 C   0  0  0  0  0  0  0  0  0  0  0  0
   82.7301   25.5952    8.9060 C   0  0  0  0  0  0  0  0  0  0  0  0
   83.5768   26.5837    8.4195 C   0  0  0  0  0  0  0  0  0  0  0  0
   83.4962   27.8758    8.9194 C   0  0  0  0  0  0  0  0  0  0  0  0
  1  2  1  0
  2  3  2  0
  2  4  1  0
  5  4  1  6
  5  6  1  0
  6  7  2  0
  6  8  1  0
  5  9  1  0
  9 10  1  0
 10 11  2  0
 10 12  1  0
 12 13  1  0
 13 14  2  0
 14 15  1  0
 13 16  1  0
 16 17  2  0
 15 18  1  0
 16 18  1  0
 18 19  2  0
 19 20  1  0
 17 21  1  0
 20 21  2  0
M  END
$$$$
