7DUA_HJ0_B_1101
     RDKit          3D

 23 26  0  0  0  0  0  0  0  0999 V2000
   26.3602   12.6691  -25.4533 C   0  0  0  0  0  0  0  0  0  0  0  0
   27.6960   10.9027  -24.4727 C   0  0  0  0  0  0  0  0  0  0  0  0
   28.8523   11.6355  -24.1729 C   0  0  0  0  0  0  0  0  0  0  0  0
   29.8997   10.7321  -24.1534 C   0  0  0  0  0  0  0  0  0  0  0  0
   31.2996   11.1450  -23.8725 C   0  0  0  0  0  0  0  0  0  0  0  0
   23.8029   12.8912  -25.3014 C   0  0  0  0  0  0  0  0  0  0  0  0
   23.9697   16.4892  -28.0092 C   0  0  0  0  0  0  0  0  0  0  0  0
   25.7775   15.1911  -27.2536 C   0  0  0  0  0  0  0  0  0  0  0  0
   24.9065   14.3715  -26.5366 C   0  0  0  0  0  0  0  0  0  0  0  0
   20.8469   14.8809  -24.8750 C   0  0  0  0  0  0  0  0  0  0  0  0
   20.8738   12.3142  -25.3281 C   0  0  0  0  0  0  0  0  0  0  0  0
   27.4471   13.0597  -25.9200 O   0  0  0  0  0  0  0  0  0  0  0  0
   26.4335   11.5301  -24.5670 N   0  0  0  0  0  0  0  0  0  0  0  0
   29.3909    9.5220  -24.4288 N   0  0  0  0  0  0  0  0  0  0  0  0
   28.0705    9.6237  -24.6198 N   0  0  0  0  0  0  0  0  0  0  0  0
   25.0687   13.2646  -25.7308 C   0  0  0  0  0  0  0  0  0  0  0  0
   22.9010   13.7224  -25.8127 N   0  0  0  0  0  0  0  0  0  0  0  0
   23.5677   14.6397  -26.5764 C   0  0  0  0  0  0  0  0  0  0  0  0
   23.1281   15.6996  -27.3174 N   0  0  0  0  0  0  0  0  0  0  0  0
   25.2941   16.2277  -27.9721 N   0  0  0  0  0  0  0  0  0  0  0  0
   27.1938   14.9568  -27.2414 N   0  0  0  0  0  0  0  0  0  0  0  0
   21.4694   13.7241  -25.6455 C   0  0  2  0  0  0  0  0  0  0  0  0
   20.5745   13.0430  -26.5842 C   0  0  0  0  0  0  0  0  0  0  0  0
  2  3  1  0
  3  4  2  0
  4  5  1  0
  8  9  1  0
  1 12  2  0
  2 13  1  0
  1 13  1  0
  4 14  1  0
 14 15  1  0
  2 15  2  0
  6 16  2  0
  1 16  1  0
  9 16  1  0
  6 17  1  0
 17 18  1  0
  9 18  2  0
 18 19  1  0
  7 19  2  0
  8 20  2  0
  7 20  1  0
  8 21  1  0
 11 22  1  0
 17 22  1  0
 22 10  1  1
 11 23  1  0
 22 23  1  0
M  END
$$$$
