7UF2_5SP_A_301
     RDKit          3D

 25 24  0  0  0  0  0  0  0  0999 V2000
   -6.2170   -5.7953    3.9607 O   0  0  0  0  0  0  0  0  0  0  0  0
   -5.5303   -5.4358    5.1263 C   0  0  1  0  0  0  0  0  0  0  0  0
   -6.2210   -4.2717    5.7738 C   0  0  0  0  0  0  0  0  0  0  0  0
   -7.3551   -3.9748    5.4276 O   0  0  0  0  0  0  0  0  0  0  0  0
   -5.5255   -3.4662    6.8478 C   0  0  2  0  0  0  0  0  0  0  0  0
   -5.2780   -4.3311    8.1083 C   0  0  1  0  0  0  0  0  0  0  0  0
   -3.9035   -4.0636    8.7478 C   0  0  2  0  0  0  0  0  0  0  0  0
   -3.1303   -3.2282    7.9174 O   0  0  0  0  0  0  0  0  0  0  0  0
   -1.6280   -2.9543    8.6759 P   0  0  1  0  0  5  0  0  0  0  0  0
   -1.7056   -1.6656    9.4617 O   0  0  0  0  0  0  0  0  0  0  0  0
   -1.2663   -4.2221    9.7390 O   0  0  0  0  0  0  0  0  0  0  0  0
   -0.4052   -2.8177    7.5121 O   0  0  0  0  0  0  0  0  0  0  0  0
   -6.2985   -2.3376    7.1666 O   0  0  0  0  0  0  0  0  0  0  0  0
   -6.3100   -4.1864    9.0547 O   0  0  0  0  0  0  0  0  0  0  0  0
   -6.4321   -6.7594    4.0547 H   0  0  0  0  0  0  0  0  0  0  0  0
   -5.5138   -6.2909    5.8379 H   0  0  0  0  0  0  0  0  0  0  0  0
   -4.4804   -5.1642    4.8740 H   0  0  0  0  0  0  0  0  0  0  0  0
   -4.5317   -3.1347    6.4638 H   0  0  0  0  0  0  0  0  0  0  0  0
   -5.2730   -5.3962    7.7858 H   0  0  0  0  0  0  0  0  0  0  0  0
   -3.4005   -5.0440    8.9139 H   0  0  0  0  0  0  0  0  0  0  0  0
   -4.0757   -3.5752    9.7333 H   0  0  0  0  0  0  0  0  0  0  0  0
   -0.4953   -3.8986   10.2698 H   0  0  0  0  0  0  0  0  0  0  0  0
   -0.0587   -3.7390    7.4010 H   0  0  0  0  0  0  0  0  0  0  0  0
   -6.6521   -1.9808    6.3098 H   0  0  0  0  0  0  0  0  0  0  0  0
   -6.0425   -4.6723    9.8772 H   0  0  0  0  0  0  0  0  0  0  0  0
  1  2  1  0
  2  3  1  0
  3  4  2  0
  3  5  1  0
  5  6  1  0
  6  7  1  0
  7  8  1  0
  9  8  1  6
  9 10  2  0
  9 11  1  0
  9 12  1  0
  5 13  1  0
  6 14  1  0
  1 15  1  0
  2 16  1  1
  2 17  1  0
  5 18  1  6
  6 19  1  6
  7 20  1  1
  7 21  1  0
 11 22  1  0
 12 23  1  0
 13 24  1  0
 14 25  1  0
M  END
