
     RDKit          3D

 29 31  0  0  0  0  0  0  0  0999 V2000
   37.2690   -0.4082  -17.3547 C   0  0  0  0  0  0  0  0  0  0  0  0
   37.7973   -0.2408  -16.0785 C   0  0  0  0  0  0  0  0  0  0  0  0
   33.5919   -0.1710  -18.5871 C   0  0  0  0  0  0  0  0  0  0  0  0
   31.2043   -0.5160  -18.5148 C   0  0  0  0  0  0  0  0  0  0  0  0
   33.7991   -1.5502  -18.6791 C   0  0  0  0  0  0  0  0  0  0  0  0
   31.4049   -1.8964  -18.6043 C   0  0  0  0  0  0  0  0  0  0  0  0
   37.0448    0.7024  -18.1728 C   0  0  0  0  0  0  0  0  0  0  0  0
   38.0865    1.0409  -15.6132 C   0  0  0  0  0  0  0  0  0  0  0  0
   32.4552   -5.8612  -19.0017 C   0  0  0  0  0  0  0  0  0  0  0  0
   34.0216   -4.5651  -18.5301 C   0  0  0  0  0  0  0  0  0  0  0  0
   32.2964    0.3600  -18.4971 C   0  0  0  0  0  0  0  0  0  0  0  0
   32.7036   -2.4210  -18.6820 C   0  0  0  0  0  0  0  0  0  0  0  0
   37.3462    1.9984  -17.7258 C   0  0  0  0  0  0  0  0  0  0  0  0
   37.8552    2.1584  -16.4253 C   0  0  0  0  0  0  0  0  0  0  0  0
   32.5852    4.3235  -21.0727 C   0  0  0  0  0  0  0  0  0  0  0  0
   34.2325    3.0035  -18.6902 C   0  0  0  0  0  0  0  0  0  0  0  0
   31.5819    6.5104  -20.6735 C   0  0  0  0  0  0  0  0  0  0  0  0
   32.0934    1.8478  -18.3290 C   0  0  0  0  0  0  0  0  0  0  0  0
   32.5448    2.8723  -20.5760 C   0  0  0  0  0  0  0  0  0  0  0  0
   35.4498    2.8113  -19.5953 C   0  0  0  0  0  0  0  0  0  0  0  0
   33.7758   -5.8475  -18.6738 N   0  0  0  0  0  0  0  0  0  0  0  0
   31.8650   -4.6675  -19.0614 N   0  0  0  0  0  0  0  0  0  0  0  0
   32.8846   -3.8258  -18.7547 N   0  0  0  0  0  0  0  0  0  0  0  0
   31.4643    5.0808  -20.8157 N   0  0  0  0  0  0  0  0  0  0  0  0
   32.9869    2.6269  -19.1947 N   0  0  0  0  0  0  0  0  0  0  0  0
   33.5990    4.7869  -21.5910 O   0  0  0  0  0  0  0  0  0  0  0  0
   34.3325    3.4619  -17.5509 O   0  0  0  0  0  0  0  0  0  0  0  0
   37.0047    3.3781  -18.8209 S   0  0  0  0  0  0  0  0  0  0  0  0
   38.2170    3.7072  -15.7450 Cl  0  0  0  0  0  0  0  0  0  0  0  0
  1  2  4  0
  3  5  4  0
  4  6  4  0
  1  7  4  0
  2  8  4  0
  3 11  4  0
  4 11  4  0
  5 12  4  0
  6 12  4  0
  7 13  4  0
  8 14  4  0
 13 14  4  0
 11 18  1  0
 15 19  1  0
 16 20  1  0
  9 21  4  0
 10 21  4  0
  9 22  4  0
 22 23  4  0
 10 23  4  0
 12 23  1  0
 17 24  1  0
 15 24  1  0
 19 25  1  0
 18 25  1  0
 16 25  1  0
 15 26  2  0
 16 27  2  0
 20 28  1  0
 13 28  1  0
 14 29  1  0
M  END
