7PUV_84Z_A_304
     RDKit          3D

 36 37  0  0  0  0  0  0  0  0999 V2000
    7.3015    1.2214   -6.1482 O   0  0  0  0  0  0  0  0  0  0  0  0
    7.3458   -0.2061   -5.6789 S   0  0  2  0  0  6  0  0  0  0  0  0
    6.7311   -1.0689   -6.7460 O   0  0  0  0  0  0  0  0  0  0  0  0
    6.4318   -0.3315   -4.1783 C   0  0  0  0  0  0  0  0  0  0  0  0
    6.5042    0.6869   -3.2160 C   0  0  0  0  0  0  0  0  0  0  0  0
    5.7760    0.5822   -2.0267 C   0  0  0  0  0  0  0  0  0  0  0  0
    4.9771   -0.5404   -1.7909 C   0  0  0  0  0  0  0  0  0  0  0  0
    4.9078   -1.5611   -2.7433 C   0  0  0  0  0  0  0  0  0  0  0  0
    5.6348   -1.4594   -3.9334 C   0  0  0  0  0  0  0  0  0  0  0  0
    9.0268   -0.7134   -5.4213 C   0  0  0  0  0  0  0  0  0  0  0  0
    9.9922   -0.2789   -6.3416 C   0  0  0  0  0  0  0  0  0  0  0  0
    9.4192   -1.5668   -4.3576 C   0  0  0  0  0  0  0  0  0  0  0  0
    8.4868   -2.0378   -3.3078 C   0  0  0  0  0  0  0  0  0  0  0  0
    7.5770   -1.1373   -2.7436 O   0  0  0  0  0  0  0  0  0  0  0  0
    6.4714   -0.6095   -3.4664 C   0  0  0  0  0  0  0  0  0  0  0  0
    8.4740   -3.2486   -2.9571 O   0  0  0  0  0  0  0  0  0  0  0  0
   10.7570   -1.9905   -4.2799 C   0  0  0  0  0  0  0  0  0  0  0  0
   11.7149   -1.5557   -5.2059 C   0  0  0  0  0  0  0  0  0  0  0  0
   11.3234   -0.6898   -6.2431 C   0  0  0  0  0  0  0  0  0  0  0  0
   12.4589   -0.1042   -7.4547 Cl  0  0  0  0  0  0  0  0  0  0  0  0
   13.3861   -2.1174   -5.0497 S   0  0  1  0  0  6  0  0  0  0  0  0
   13.5585   -3.4223   -5.7756 O   0  0  0  0  0  0  0  0  0  0  0  0
   14.3268   -1.1114   -5.6522 O   0  0  0  0  0  0  0  0  0  0  0  0
   13.7777   -2.3173   -3.3771 N   0  0  0  0  0  0  0  0  0  0  0  0
    7.1209    1.5602   -3.3850 H   0  0  0  0  0  0  0  0  0  0  0  0
    5.8316    1.3709   -1.2875 H   0  0  0  0  0  0  0  0  0  0  0  0
    4.4142   -0.6203   -0.8699 H   0  0  0  0  0  0  0  0  0  0  0  0
    4.2917   -2.4317   -2.5588 H   0  0  0  0  0  0  0  0  0  0  0  0
    5.5758   -2.2584   -4.6614 H   0  0  0  0  0  0  0  0  0  0  0  0
    9.7098    0.3814   -7.1515 H   0  0  0  0  0  0  0  0  0  0  0  0
    5.8983    0.0747   -2.8076 H   0  0  0  0  0  0  0  0  0  0  0  0
    5.8048   -1.4342   -3.7966 H   0  0  0  0  0  0  0  0  0  0  0  0
    6.8315   -0.0409   -4.3499 H   0  0  0  0  0  0  0  0  0  0  0  0
   11.0594   -2.6508   -3.4766 H   0  0  0  0  0  0  0  0  0  0  0  0
   13.1821   -3.0914   -3.0083 H   0  0  0  0  0  0  0  0  0  0  0  0
   14.7661   -2.6527   -3.3331 H   0  0  0  0  0  0  0  0  0  0  0  0
  1  2  2  0
  2  3  2  0
  2  4  1  6
  4  5  4  0
  5  6  4  0
  6  7  4  0
  7  8  4  0
  8  9  4  0
  4  9  4  0
  2 10  1  0
 10 11  4  0
 10 12  4  0
 12 13  1  0
 13 14  1  0
 14 15  1  0
 13 16  2  0
 12 17  4  0
 17 18  4  0
 11 19  4  0
 18 19  4  0
 19 20  1  0
 18 21  1  0
 21 22  2  0
 21 23  2  0
 21 24  1  6
  5 25  1  0
  6 26  1  0
  7 27  1  0
  8 28  1  0
  9 29  1  0
 11 30  1  0
 15 31  1  0
 15 32  1  0
 15 33  1  0
 17 34  1  0
 24 35  1  0
 24 36  1  0
M  END
