7P85_5ZG_A_401
     RDKit          3D

 14 14  0  0  0  0  0  0  0  0999 V2000
   -5.6326  -25.1663  -13.0406 C   0  0  0  0  0  0  0  0  0  0  0  0
   -5.3251  -25.4978  -11.7183 C   0  0  0  0  0  0  0  0  0  0  0  0
   -5.5895  -24.6150  -10.6872 C   0  0  0  0  0  0  0  0  0  0  0  0
   -6.1633  -23.4079  -11.0199 C   0  0  0  0  0  0  0  0  0  0  0  0
   -6.4683  -23.0801  -12.3359 C   0  0  0  0  0  0  0  0  0  0  0  0
   -6.2076  -23.9564  -13.3740 C   0  0  0  0  0  0  0  0  0  0  0  0
   -5.3040  -26.1918  -14.0631 C   0  0  0  0  0  0  0  0  0  0  0  0
   -6.4892  -22.3811   -9.9720 C   0  0  0  0  0  0  0  0  0  0  0  0
   -7.5947  -28.0450  -16.3657 C   0  0  0  0  0  0  0  0  0  0  0  0
   -7.7023  -29.2049  -17.3407 C   0  0  0  0  0  0  0  0  0  0  0  0
   -6.4549  -26.0307  -15.4373 P   0  0  2  0  0  5  0  0  0  0  0  0
   -6.3809  -27.3858  -16.4571 O   0  0  0  0  0  0  0  0  0  0  0  0
   -6.0937  -24.6958  -16.4094 O   0  0  0  0  0  0  0  0  0  0  0  0
   -7.8578  -25.8853  -14.8896 O   0  0  0  0  0  0  0  0  0  0  0  0
  1  2  2  0
  2  3  1  0
  3  4  2  0
  4  5  1  0
  1  6  1  0
  5  6  2  0
  7  1  1  1
  8  4  1  1
 10  9  1  6
  7 11  1  0
 11 12  1  0
  9 12  1  6
 11 13  1  6
 11 14  2  0
M  END
$$$$
