7WPW_F15_A_200
     RDKit          3D

 17 16  0  0  0  0  0  0  0  0999 V2000
    5.6229  -16.1673   -2.2802 C   0  0  0  0  0  0  0  0  0  0  0  0
    4.5060  -15.6821   -1.6384 O   0  0  0  0  0  0  0  0  0  0  0  0
    6.7507  -15.7646   -1.9223 O   0  0  0  0  0  0  0  0  0  0  0  0
    5.5131  -17.1703   -3.4010 C   0  0  0  0  0  0  0  0  0  0  0  0
    6.8788  -17.7330   -3.6868 C   0  0  0  0  0  0  0  0  0  0  0  0
    7.3766  -19.9695   -4.5360 C   0  0  0  0  0  0  0  0  0  0  0  0
    7.3276  -20.8588   -5.7556 C   0  0  0  0  0  0  0  0  0  0  0  0
    6.9139  -18.6026   -4.9258 C   0  0  0  0  0  0  0  0  0  0  0  0
    7.5280  -22.3081   -5.4192 C   0  0  0  0  0  0  0  0  0  0  0  0
    6.7650  -22.7689   -4.2300 C   0  0  0  0  0  0  0  0  0  0  0  0
    6.9218  -24.2216   -3.9242 C   0  0  0  0  0  0  0  0  0  0  0  0
    7.0836  -24.4983   -2.4492 C   0  0  0  0  0  0  0  0  0  0  0  0
    7.3326  -23.2179   -1.6668 C   0  0  0  0  0  0  0  0  0  0  0  0
    7.3243  -23.6145   -0.2122 C   0  0  0  0  0  0  0  0  0  0  0  0
    7.7139  -22.4565    0.6478 C   0  0  0  0  0  0  0  0  0  0  0  0
    9.1837  -22.1696    0.5198 C   0  0  0  0  0  0  0  0  0  0  0  0
    9.5556  -21.1243    1.5765 C   0  0  0  0  0  0  0  0  0  0  0  0
  1  2  1  0
  1  3  2  0
  4  1  1  1
  5  4  1  6
  6  7  1  6
  8  5  1  6
  6  8  1  0
  7  9  1  6
  9 10  1  6
 10 11  1  6
 11 12  1  6
 12 13  1  1
 14 13  1  1
 15 14  1  1
 15 16  1  0
 16 17  1  6
M  END
$$$$
