7MMH_ZJY_A_1202
     RDKit          3D

104110  0  0  0  0  0  0  0  0999 V2000
    2.6379    9.9937    1.8348 C   0  0  0  0  0  0  0  0  0  0  0  0
    0.2817    8.2692    0.0370 C   0  0  0  0  0  0  0  0  0  0  0  0
   -1.0672    8.9843    2.6148 C   0  0  0  0  0  0  0  0  0  0  0  0
   -1.2050    7.8148    0.1238 C   0  0  0  0  0  0  0  0  0  0  0  0
   -2.2222    8.2983    2.2077 C   0  0  0  0  0  0  0  0  0  0  0  0
    0.9767    8.0568   -1.6300 C   0  0  0  0  0  0  0  0  0  0  0  0
    1.3456   11.5456    3.3769 C   0  0  1  0  0  0  0  0  0  0  0  0
    0.4878   11.3082    4.6231 C   0  0  0  0  0  0  0  0  0  0  0  0
    0.1792    9.8090    4.6125 C   0  0  2  0  0  0  0  0  0  0  0  0
    1.3457    9.1776    3.8609 C   0  0  0  0  0  0  0  0  0  0  0  0
    2.4660   12.5107    3.6484 C   0  0  0  0  0  0  0  0  0  0  0  0
    3.4817   14.8096    3.3549 C   0  0  2  0  0  0  0  0  0  0  0  0
    3.8039    9.0306    1.8656 C   0  0  2  0  0  0  0  0  0  0  0  0
    1.9224    7.3282    1.6332 C   0  0  0  0  0  0  0  0  0  0  0  0
    4.7679    9.1991    0.6696 C   0  0  0  0  0  0  0  0  0  0  0  0
    5.5034   10.5529    0.6631 C   0  0  0  0  0  0  0  0  0  0  0  0
   -0.0477    8.5085    0.5289 C   0  0  0  0  0  0  0  0  0  0  0  0
    1.0370    8.6305   -0.3438 C   0  0  0  0  0  0  0  0  0  0  0  0
   -0.1737    7.3511   -2.0144 C   0  0  0  0  0  0  0  0  0  0  0  0
   -1.2624    7.2309   -1.1440 C   0  0  0  0  0  0  0  0  0  0  0  0
    3.2738    7.4812   -2.4333 C   0  0  0  0  0  0  0  0  0  0  0  0
   -3.3969    8.1658    3.1232 C   0  0  0  0  0  0  0  0  0  0  0  0
    3.8730   15.2379    4.7573 C   0  0  0  0  0  0  0  0  0  0  0  0
    3.6598   18.8348    4.8054 C   0  0  2  0  0  0  0  0  0  0  0  0
    3.3295   20.1041    4.0332 C   0  0  0  0  0  0  0  0  0  0  0  0
    3.3504   20.1182    5.5607 C   0  0  0  0  0  0  0  0  0  0  0  0
    5.1194   18.3827    4.7921 C   0  0  0  0  0  0  0  0  0  0  0  0
    4.4831   14.7472    2.1927 C   0  0  2  0  0  0  0  0  0  0  0  0
    5.9220   15.1100    2.4746 C   0  0  0  0  0  0  0  0  0  0  0  0
    6.8592   14.2009    2.7994 C   0  0  0  0  0  0  0  0  0  0  0  0
    6.6045   12.7179    2.8865 C   0  0  0  0  0  0  0  0  0  0  0  0
    7.3155   11.9702    1.7497 C   0  0  0  0  0  0  0  0  0  0  0  0
    3.4955   15.9139    2.3005 C   0  0  0  0  0  0  0  0  0  0  0  0
    6.7536   10.5499    1.5615 C   0  0  0  0  0  0  0  0  0  0  0  0
    1.0743    7.6198   -1.1140 C   0  0  2  0  0  0  0  0  0  0  0  0
    1.8567    6.3485   -0.7993 C   0  0  0  0  0  0  0  0  0  0  0  0
    2.5960    7.6730   -1.0107 C   0  0  0  0  0  0  0  0  0  0  0  0
    0.4686    7.7196   -2.5264 C   0  0  2  0  0  0  0  0  0  0  0  0
   -0.6685    8.5048   -2.4779 F   0  0  0  0  0  0  0  0  0  0  0  0
    0.1286    6.4797   -3.0404 F   0  0  0  0  0  0  0  0  0  0  0  0
    1.3863    8.3098   -3.3759 F   0  0  0  0  0  0  0  0  0  0  0  0
    1.8746   10.2382    3.0240 N   0  0  0  0  0  0  0  0  0  0  0  0
    2.3600   13.8765    3.2266 N   0  0  0  0  0  0  0  0  0  0  0  0
    3.2954    7.6570    1.8760 N   0  0  0  0  0  0  0  0  0  0  0  0
   -0.0063    9.0689    1.7650 N   0  0  0  0  0  0  0  0  0  0  0  0
   -2.2600    7.7282    0.9739 N   0  0  0  0  0  0  0  0  0  0  0  0
    3.0268   16.1245    5.4999 N   0  0  0  0  0  0  0  0  0  0  0  0
    3.4825   12.1208    4.2857 O   0  0  0  0  0  0  0  0  0  0  0  0
    2.3212   10.5868    0.7672 O   0  0  0  0  0  0  0  0  0  0  0  0
    1.0405    8.3375    1.2421 O   0  0  0  0  0  0  0  0  0  0  0  0
    1.5088    6.1465    1.7888 O   0  0  0  0  0  0  0  0  0  0  0  0
   -1.0242    9.5824    3.8774 O   0  0  0  0  0  0  0  0  0  0  0  0
    2.0329    8.1713   -2.5487 O   0  0  0  0  0  0  0  0  0  0  0  0
    4.9559   14.8395    5.2713 O   0  0  0  0  0  0  0  0  0  0  0  0
    1.8892   17.2955    3.4104 O   0  0  0  0  0  0  0  0  0  0  0  0
    1.2276   18.0474    5.6345 O   0  0  0  0  0  0  0  0  0  0  0  0
    2.3851   17.5746    4.8021 S   0  0  2  0  0  6  0  0  0  0  0  0
   -0.0177    9.2963   -0.2693 H   0  0  0  0  0  0  0  0  0  0  0  0
   -0.6370    7.6740    0.2244 H   0  0  0  0  0  0  0  0  0  0  0  0
    0.7075   11.9163    2.5444 H   0  0  0  0  0  0  0  0  0  0  0  0
   -0.4396   11.9222    4.5934 H   0  0  0  0  0  0  0  0  0  0  0  0
    1.0489   11.5476    5.5532 H   0  0  0  0  0  0  0  0  0  0  0  0
    0.1043    9.3874    5.6389 H   0  0  0  0  0  0  0  0  0  0  0  0
    2.1343    8.8358    4.5665 H   0  0  0  0  0  0  0  0  0  0  0  0
    0.9979    8.3195    3.2450 H   0  0  0  0  0  0  0  0  0  0  0  0
    4.3676    9.2375    2.7995 H   0  0  0  0  0  0  0  0  0  0  0  0
    5.5169    8.3732    0.6778 H   0  0  0  0  0  0  0  0  0  0  0  0
    4.1900    9.0947   -0.2761 H   0  0  0  0  0  0  0  0  0  0  0  0
    4.8123   11.3700    0.9573 H   0  0  0  0  0  0  0  0  0  0  0  0
    5.8260   10.7723   -0.3780 H   0  0  0  0  0  0  0  0  0  0  0  0
    1.9144    9.1749   -0.0184 H   0  0  0  0  0  0  0  0  0  0  0  0
   -0.2262    6.9004   -2.9978 H   0  0  0  0  0  0  0  0  0  0  0  0
   -2.1454    6.6859   -1.4601 H   0  0  0  0  0  0  0  0  0  0  0  0
    3.7712    7.7503   -1.4775 H   0  0  0  0  0  0  0  0  0  0  0  0
    3.9390    7.7777   -3.2718 H   0  0  0  0  0  0  0  0  0  0  0  0
    3.1074    6.3834   -2.4825 H   0  0  0  0  0  0  0  0  0  0  0  0
   -3.7828    9.1750    3.3853 H   0  0  0  0  0  0  0  0  0  0  0  0
   -4.2105    7.5859    2.6369 H   0  0  0  0  0  0  0  0  0  0  0  0
   -3.0923    7.6365    4.0512 H   0  0  0  0  0  0  0  0  0  0  0  0
    2.3089   20.1718    3.6076 H   0  0  0  0  0  0  0  0  0  0  0  0
    4.1899   20.6324    3.5751 H   0  0  0  0  0  0  0  0  0  0  0  0
    4.2220   20.6567    5.9846 H   0  0  0  0  0  0  0  0  0  0  0  0
    2.3427   20.1890    6.0197 H   0  0  0  0  0  0  0  0  0  0  0  0
    5.2953   17.7420    3.9043 H   0  0  0  0  0  0  0  0  0  0  0  0
    5.8226   19.2435    4.7573 H   0  0  0  0  0  0  0  0  0  0  0  0
    5.3311   17.7909    5.7071 H   0  0  0  0  0  0  0  0  0  0  0  0
    4.2569   14.0487    1.3575 H   0  0  0  0  0  0  0  0  0  0  0  0
    6.2198   16.1532    2.4167 H   0  0  0  0  0  0  0  0  0  0  0  0
    7.8742   14.5446    2.9724 H   0  0  0  0  0  0  0  0  0  0  0  0
    6.9862   12.3544    3.8653 H   0  0  0  0  0  0  0  0  0  0  0  0
    5.5230   12.4967    2.8638 H   0  0  0  0  0  0  0  0  0  0  0  0
    7.2328   12.5347    0.7935 H   0  0  0  0  0  0  0  0  0  0  0  0
    8.3957   11.9014    2.0003 H   0  0  0  0  0  0  0  0  0  0  0  0
    3.9263   16.8852    2.6312 H   0  0  0  0  0  0  0  0  0  0  0  0
    2.6620   15.8755    1.5688 H   0  0  0  0  0  0  0  0  0  0  0  0
    7.5315    9.9146    1.0819 H   0  0  0  0  0  0  0  0  0  0  0  0
    6.5314   10.1040    2.5554 H   0  0  0  0  0  0  0  0  0  0  0  0
    1.9936    5.6291   -1.6338 H   0  0  0  0  0  0  0  0  0  0  0  0
    1.8597    6.0038    0.2565 H   0  0  0  0  0  0  0  0  0  0  0  0
    3.1596    7.7151   -1.9667 H   0  0  0  0  0  0  0  0  0  0  0  0
    3.0187    8.0985   -0.0758 H   0  0  0  0  0  0  0  0  0  0  0  0
    1.4397   14.2299    2.8796 H   0  0  0  0  0  0  0  0  0  0  0  0
    3.9526    6.8813    2.1215 H   0  0  0  0  0  0  0  0  0  0  0  0
    2.8861   15.9805    6.5245 H   0  0  0  0  0  0  0  0  0  0  0  0
  3  5  4  0
  7  8  1  0
  8  9  1  0
  9 10  1  0
  7 11  1  0
  1 13  1  0
 13 15  1  0
 15 16  1  0
  4 17  4  0
 17 18  4  0
  6 18  4  0
  6 19  4  0
  4 20  4  0
 19 20  4  0
  5 22  1  0
 12 23  1  1
 24 25  1  0
 24 26  1  0
 25 26  1  0
 24 27  1  6
 12 28  1  0
 28 29  1  0
 29 30  2  0
 30 31  1  0
 31 32  1  0
 28 33  1  0
 12 33  1  0
 32 34  1  0
 16 34  1  0
 35  2  1  1
 35 36  1  0
 36 37  1  0
 35 37  1  0
 35 38  1  0
 38 39  1  1
 38 40  1  0
 38 41  1  0
  1 42  1  0
  7 42  1  0
 10 42  1  0
 12 43  1  0
 11 43  1  0
 14 44  1  0
 13 44  1  0
  3 45  4  0
 17 45  4  0
  5 46  4  0
  4 46  4  0
 23 47  1  0
 11 48  2  0
  1 49  2  0
  2 50  1  0
 14 50  1  0
 14 51  2  0
  3 52  1  0
  9 52  1  0
  6 53  1  0
 21 53  1  0
 23 54  2  0
 55 57  2  0
 57 47  1  1
 56 57  2  0
 24 57  1  0
  2 58  1  0
  2 59  1  0
  7 60  1  6
  8 61  1  0
  8 62  1  0
  9 63  1  1
 10 64  1  0
 10 65  1  0
 13 66  1  1
 15 67  1  0
 15 68  1  0
 16 69  1  0
 16 70  1  0
 18 71  1  0
 19 72  1  0
 20 73  1  0
 21 74  1  0
 21 75  1  0
 21 76  1  0
 22 77  1  0
 22 78  1  0
 22 79  1  0
 25 80  1  0
 25 81  1  0
 26 82  1  0
 26 83  1  0
 27 84  1  0
 27 85  1  0
 27 86  1  0
 28 87  1  6
 29 88  1  0
 30 89  1  0
 31 90  1  0
 31 91  1  0
 32 92  1  0
 32 93  1  0
 33 94  1  0
 33 95  1  0
 34 96  1  0
 34 97  1  0
 36 98  1  0
 36 99  1  0
 37100  1  0
 37101  1  0
 43102  1  0
 44103  1  0
 47104  1  0
M  END
