7ZU2_DHT_A_1001
     RDKit          3D

 21 24  0  0  0  0  0  0  0  0999 V2000
  -27.3812    5.0939   -5.2409 C   0  0  0  0  0  0  0  0  0  0  0  0
  -26.7850    5.7392   -4.0041 C   0  0  0  0  0  0  0  0  0  0  0  0
  -25.3274    5.9017   -4.2818 C   0  0  0  0  0  0  0  0  0  0  0  0
  -24.6912    6.8395   -3.8330 O   0  0  0  0  0  0  0  0  0  0  0  0
  -24.6934    4.8427   -5.1454 C   0  0  0  0  0  0  0  0  0  0  0  0
  -25.5096    3.6059   -4.8909 C   0  0  2  0  0  0  0  0  0  0  0  0
  -24.9063    2.3358   -5.3732 C   0  0  0  0  0  0  0  0  0  0  0  0
  -25.6911    1.2079   -4.7600 C   0  0  0  0  0  0  0  0  0  0  0  0
  -27.1588    1.2986   -4.9485 C   0  0  2  0  0  0  0  0  0  0  0  0
  -27.7350    2.6835   -4.8149 C   0  0  1  0  0  0  0  0  0  0  0  0
  -26.9127    3.7068   -5.4947 C   0  0  1  0  0  0  0  0  0  0  0  0
  -29.1712    2.6738   -5.2730 C   0  0  0  0  0  0  0  0  0  0  0  0
  -29.9664    1.5286   -4.7956 C   0  0  0  0  0  0  0  0  0  0  0  0
  -29.2660    0.2230   -4.7015 C   0  0  1  0  0  0  0  0  0  0  0  0
  -27.9431    0.5055   -3.9777 C   0  0  1  0  0  0  0  0  0  0  0  0
  -27.4698   -0.8614   -3.6450 C   0  0  0  0  0  0  0  0  0  0  0  0
  -28.7409   -1.4337   -3.0185 C   0  0  0  0  0  0  0  0  0  0  0  0
  -29.8764   -0.7580   -3.7691 C   0  0  2  0  0  0  0  0  0  0  0  0
  -30.5424   -1.7888   -4.4556 O   0  0  0  0  0  0  0  0  0  0  0  0
  -29.0786   -0.4134   -6.0355 C   0  0  0  0  0  0  0  0  0  0  0  0
  -26.8274    3.4853   -6.9833 C   0  0  0  0  0  0  0  0  0  0  0  0
  1  2  1  6
  2  3  1  6
  3  4  2  0
  5  3  1  6
  6  5  1  6
  6  7  1  0
  7  8  1  1
  9  8  1  1
  9 10  1  0
  1 11  1  0
  6 11  1  0
 10 11  1  0
 10 12  1  6
 12 13  1  6
 13 14  1  1
  9 15  1  0
 14 15  1  0
 15 16  1  6
 17 16  1  1
 14 18  1  0
 17 18  1  0
 18 19  1  6
 14 20  1  6
 11 21  1  6
M  END
$$$$
