7NF0_BYN_B_702
     RDKit          3D

 68 71  0  0  0  0  0  0  0  0999 V2000
   -5.1255   17.7645   28.5808 C   0  0  0  0  0  0  0  0  0  0  0  0
   -5.3485   18.3506   27.3772 N   0  0  0  0  0  0  0  0  0  0  0  0
   -5.2562   19.6998   27.2235 C   0  0  0  0  0  0  0  0  0  0  0  0
   -4.9020   20.5120   28.3259 C   0  0  0  0  0  0  0  0  0  0  0  0
   -4.7160   19.8794   29.5622 C   0  0  0  0  0  0  0  0  0  0  0  0
   -4.8246   18.5278   29.6597 N   0  0  0  0  0  0  0  0  0  0  0  0
   -4.7459   21.9541   28.2558 N   0  0  0  0  0  0  0  0  0  0  0  0
   -4.9645   22.7240   29.4667 C   0  0  0  0  0  0  0  0  0  0  0  0
   -4.8757   22.0568   30.7051 C   0  0  0  0  0  0  0  0  0  0  0  0
   -4.4382   20.6743   30.7282 N   0  0  0  0  0  0  0  0  0  0  0  0
   -5.2803   24.1140   29.4098 C   0  0  0  0  0  0  0  0  0  0  0  0
   -5.7637   24.7446   30.6076 C   0  0  0  0  0  0  0  0  0  0  0  0
   -5.6675   24.0550   31.8447 C   0  0  0  0  0  0  0  0  0  0  0  0
   -5.2484   22.7251   31.8730 C   0  0  0  0  0  0  0  0  0  0  0  0
   -4.3585   22.6192   26.9995 C   0  0  1  0  0  0  0  0  0  0  0  0
   -4.0176   24.0930   27.2249 C   0  0  1  0  0  0  0  0  0  0  0  0
   -5.1053   24.8378   28.0477 C   0  0  2  0  0  0  0  0  0  0  0  0
   -5.2145   16.3822   28.7085 O   0  0  0  0  0  0  0  0  0  0  0  0
   -6.0491   24.6982   33.1584 C   0  0  2  0  0  0  0  0  0  0  0  0
   -6.3893   26.1242   30.6071 C   0  0  1  0  0  0  0  0  0  0  0  0
   -3.2635   21.9646   26.4085 O   0  0  0  0  0  0  0  0  0  0  0  0
   -4.5811   26.2938   28.1887 C   0  0  1  0  0  0  0  0  0  0  0  0
   -6.4392   24.8366   27.2616 C   0  0  1  0  0  0  0  0  0  0  0  0
   -3.8372   20.0413   31.9203 C   0  0  1  0  0  0  0  0  0  0  0  0
   -5.5077   20.2015   26.0966 O   0  0  0  0  0  0  0  0  0  0  0  0
   -2.2862   19.9232   31.8430 C   0  0  1  0  0  0  0  0  0  0  0  0
   -1.5720   21.0120   30.9794 C   0  0  1  0  0  0  0  0  0  0  0  0
   -2.1753   21.2738   29.5741 C   0  0  1  0  0  0  0  0  0  0  0  0
   -1.9415   20.1227   28.5743 C   0  0  2  0  0  0  0  0  0  0  0  0
   -1.7666   19.9649   33.1496 O   0  0  0  0  0  0  0  0  0  0  0  0
   -1.4891   22.2214   31.6929 O   0  0  0  0  0  0  0  0  0  0  0  0
   -3.5361   21.5933   29.6674 O   0  0  0  0  0  0  0  0  0  0  0  0
   -2.7189   18.9984   28.9172 O   0  0  0  0  0  0  0  0  0  0  0  0
   -2.2578   17.6957   27.9163 P   0  0  2  0  0  5  0  0  0  0  0  0
   -2.5956   17.9875   26.4699 O   0  0  0  0  0  0  0  0  0  0  0  0
   -3.0801   16.2994   28.4017 O   0  0  0  0  0  0  0  0  0  0  0  0
   -0.5922   17.4361   28.0658 O   0  0  0  0  0  0  0  0  0  0  0  0
   -5.5981   17.7515   26.5578 H   0  0  0  0  0  0  0  0  0  0  0  0
   -5.2780   22.2010   32.8160 H   0  0  0  0  0  0  0  0  0  0  0  0
   -5.2076   22.5807   26.2876 H   0  0  0  0  0  0  0  0  0  0  0  0
   -3.0438   24.1603   27.7625 H   0  0  0  0  0  0  0  0  0  0  0  0
   -3.8778   24.5722   26.2292 H   0  0  0  0  0  0  0  0  0  0  0  0
   -5.8099   15.9627   29.4131 H   0  0  0  0  0  0  0  0  0  0  0  0
   -7.0340   24.3346   33.5219 H   0  0  0  0  0  0  0  0  0  0  0  0
   -6.1101   25.7997   33.0337 H   0  0  0  0  0  0  0  0  0  0  0  0
   -5.3057   24.4478   33.9443 H   0  0  0  0  0  0  0  0  0  0  0  0
   -7.0555   26.2807   31.4784 H   0  0  0  0  0  0  0  0  0  0  0  0
   -5.5993   26.9028   30.6334 H   0  0  0  0  0  0  0  0  0  0  0  0
   -7.0627   26.2676   29.7481 H   0  0  0  0  0  0  0  0  0  0  0  0
   -2.6511   21.6927   27.1405 H   0  0  0  0  0  0  0  0  0  0  0  0
   -4.6333   26.8388   27.2209 H   0  0  0  0  0  0  0  0  0  0  0  0
   -5.1888   26.9086   28.8784 H   0  0  0  0  0  0  0  0  0  0  0  0
   -3.5201   26.2983   28.5193 H   0  0  0  0  0  0  0  0  0  0  0  0
   -6.2533   24.9986   26.1779 H   0  0  0  0  0  0  0  0  0  0  0  0
   -6.9756   23.8723   27.3874 H   0  0  0  0  0  0  0  0  0  0  0  0
   -7.1258   25.6362   27.5956 H   0  0  0  0  0  0  0  0  0  0  0  0
   -4.0992   20.5704   32.8532 H   0  0  0  0  0  0  0  0  0  0  0  0
   -4.2737   19.0234   32.0221 H   0  0  0  0  0  0  0  0  0  0  0  0
   -2.0165   18.9256   31.4531 H   0  0  0  0  0  0  0  0  0  0  0  0
   -0.5329   20.6410   30.8049 H   0  0  0  0  0  0  0  0  0  0  0  0
   -1.6314   22.1604   29.1689 H   0  0  0  0  0  0  0  0  0  0  0  0
   -0.8529   19.8829   28.5455 H   0  0  0  0  0  0  0  0  0  0  0  0
   -2.2475   20.4842   27.5663 H   0  0  0  0  0  0  0  0  0  0  0  0
   -0.9643   20.5504   33.1343 H   0  0  0  0  0  0  0  0  0  0  0  0
   -0.7894   22.7742   31.2557 H   0  0  0  0  0  0  0  0  0  0  0  0
   -3.8535   21.7781   28.7449 H   0  0  0  0  0  0  0  0  0  0  0  0
   -3.9465   16.6261   28.7524 H   0  0  0  0  0  0  0  0  0  0  0  0
   -0.4416   16.5352   27.6831 H   0  0  0  0  0  0  0  0  0  0  0  0
  1  2  1  0
  2  3  1  0
  3  4  1  0
  4  5  2  0
  5  6  1  0
  1  6  2  0
  4  7  1  0
  7  8  1  0
  8  9  2  0
  9 10  1  0
  5 10  1  0
  8 11  1  0
 11 12  2  0
 12 13  1  0
 13 14  2  0
  9 14  1  0
  7 15  1  0
 15 16  1  0
 17 11  1  1
 16 17  1  0
  1 18  1  0
 13 19  1  0
 12 20  1  0
 15 21  1  0
 17 22  1  0
 17 23  1  0
 10 24  1  0
  3 25  2  0
 24 26  1  0
 26 27  1  0
 27 28  1  0
 28 29  1  0
 26 30  1  0
 27 31  1  0
 28 32  1  0
 29 33  1  0
 34 33  1  1
 34 35  2  0
 34 36  1  0
 34 37  1  0
  2 38  1  0
 14 39  1  0
 15 40  1  6
 16 41  1  1
 16 42  1  0
 18 43  1  0
 19 44  1  1
 19 45  1  0
 19 46  1  0
 20 47  1  1
 20 48  1  0
 20 49  1  0
 21 50  1  0
 22 51  1  6
 22 52  1  0
 22 53  1  0
 23 54  1  6
 23 55  1  0
 23 56  1  0
 24 57  1  1
 24 58  1  0
 26 59  1  6
 27 60  1  6
 28 61  1  6
 29 62  1  6
 29 63  1  0
 30 64  1  0
 31 65  1  0
 32 66  1  0
 36 67  1  0
 37 68  1  0
M  END
