7WKL_CAQ_B_401
     RDKit          3D

 14 14  0  0  0  0  0  0  0  0999 V2000
   15.2511   32.0371   75.1471 C   0  0  0  0  0  0  0  0  0  0  0  0
   15.7245   30.7379   75.1607 C   0  0  0  0  0  0  0  0  0  0  0  0
   17.0680   30.4913   74.9124 C   0  0  0  0  0  0  0  0  0  0  0  0
   17.5607   29.1916   74.9102 O   0  0  0  0  0  0  0  0  0  0  0  0
   17.9424   31.5231   74.6480 C   0  0  0  0  0  0  0  0  0  0  0  0
   19.2882   31.2266   74.3937 O   0  0  0  0  0  0  0  0  0  0  0  0
   17.4726   32.8310   74.6279 C   0  0  0  0  0  0  0  0  0  0  0  0
   16.1294   33.0827   74.8775 C   0  0  0  0  0  0  0  0  0  0  0  0
   14.2548   32.2298   75.3353 H   0  0  0  0  0  0  0  0  0  0  0  0
   15.0814   29.9545   75.3547 H   0  0  0  0  0  0  0  0  0  0  0  0
   16.9865   28.4726   75.0871 H   0  0  0  0  0  0  0  0  0  0  0  0
   19.5838   30.3376   74.4122 H   0  0  0  0  0  0  0  0  0  0  0  0
   18.1182   33.6110   74.4288 H   0  0  0  0  0  0  0  0  0  0  0  0
   15.7797   34.0535   74.8628 H   0  0  0  0  0  0  0  0  0  0  0  0
  1  2  4  0
  2  3  4  0
  3  4  1  0
  3  5  4  0
  5  6  1  0
  5  7  4  0
  1  8  4  0
  7  8  4  0
  1  9  1  0
  2 10  1  0
  4 11  1  0
  6 12  1  0
  7 13  1  0
  8 14  1  0
M  END
