1Y6B_AAX_A_201
     RDKit          3D

 34 38  0  0  0  0  0  0  0  0999 V2000
    1.9891   22.0225   21.3690 O   0  0  0  0  0  0  0  0  0  0  0  0
    2.2263   23.2119   20.4850 S   0  0  1  0  0  0  0  0  0  0  0  0
    3.7072   23.4626   20.4495 O   0  0  0  0  0  0  0  0  0  0  0  0
    1.7194   22.9056   18.8556 N   0  0  0  0  0  0  0  0  0  0  0  0
    1.1199   21.6173   18.6788 C   0  0  0  0  0  0  0  0  0  0  0  0
    0.9107   21.3794   17.2011 C   0  0  2  0  0  0  0  0  0  0  0  0
   -0.3771   20.6285   16.8837 C   0  0  0  0  0  0  0  0  0  0  0  0
    1.0045   19.9592   16.6521 C   0  0  0  0  0  0  0  0  0  0  0  0
    1.3494   24.5862   21.1496 C   0  0  0  0  0  0  0  0  0  0  0  0
    0.8300   24.4252   22.4184 C   0  0  0  0  0  0  0  0  0  0  0  0
    0.1233   25.4324   23.0444 C   0  0  0  0  0  0  0  0  0  0  0  0
    1.1878   25.7610   20.4452 C   0  0  0  0  0  0  0  0  0  0  0  0
    0.4820   26.7686   21.0689 C   0  0  0  0  0  0  0  0  0  0  0  0
   -0.0446   26.6125   22.3489 C   0  0  0  0  0  0  0  0  0  0  0  0
   -0.7540   27.6266   22.9747 O   0  0  0  0  0  0  0  0  0  0  0  0
   -1.2938   27.4896   24.2760 C   0  0  0  0  0  0  0  0  0  0  0  0
    0.2505   28.0265   20.4371 N   0  0  0  0  0  0  0  0  0  0  0  0
    1.0825   28.4853   19.3518 C   0  0  0  0  0  0  0  0  0  0  0  0
    0.9047   29.5827   18.6352 O   0  0  0  0  0  0  0  0  0  0  0  0
    1.8427   29.6942   17.7328 C   0  0  0  0  0  0  0  0  0  0  0  0
    2.6570   28.5937   17.8998 C   0  0  0  0  0  0  0  0  0  0  0  0
    2.1806   27.8471   18.9057 N   0  0  0  0  0  0  0  0  0  0  0  0
    2.0631   30.7242   16.7242 C   0  0  0  0  0  0  0  0  0  0  0  0
    1.2211   31.8058   16.5634 C   0  0  0  0  0  0  0  0  0  0  0  0
    1.4406   32.7829   15.5967 C   0  0  0  0  0  0  0  0  0  0  0  0
    2.5332   32.6904   14.7551 C   0  0  0  0  0  0  0  0  0  0  0  0
    3.3791   31.6021   14.9181 C   0  0  0  0  0  0  0  0  0  0  0  0
    3.1546   30.6348   15.8811 C   0  0  0  0  0  0  0  0  0  0  0  0
    0.4782   33.8777   15.5288 C   0  0  0  0  0  0  0  0  0  0  0  0
    0.6622   34.8553   14.5521 C   0  0  0  0  0  0  0  0  0  0  0  0
   -0.1962   35.8946   14.4391 N   0  0  0  0  0  0  0  0  0  0  0  0
   -1.2621   36.0166   15.2733 C   0  0  0  0  0  0  0  0  0  0  0  0
   -1.4667   35.0578   16.2525 C   0  0  0  0  0  0  0  0  0  0  0  0
   -0.6001   33.9900   16.3820 C   0  0  0  0  0  0  0  0  0  0  0  0
  1  2  2  0
  2  3  2  0
  2  4  1  6
  4  5  1  0
  6  5  1  1
  6  7  1  0
  6  8  1  0
  7  8  1  0
  2  9  1  0
  9 10  2  0
 10 11  1  0
  9 12  1  0
 12 13  2  0
 11 14  2  0
 13 14  1  0
 14 15  1  0
 15 16  1  0
 13 17  1  0
 17 18  1  0
 18 19  1  0
 19 20  1  0
 20 21  2  0
 18 22  2  0
 21 22  1  0
 20 23  1  0
 23 24  2  0
 24 25  1  0
 25 26  2  0
 26 27  1  0
 23 28  1  0
 27 28  2  0
 25 29  1  0
 29 30  2  0
 30 31  1  0
 31 32  2  0
 32 33  1  0
 29 34  1  0
 33 34  2  0
M  END
$$$$
