1Y6B_AAX_A_201
     RDKit          3D

 34 38  0  0  0  0  0  0  0  0999 V2000
   -3.1471   36.5675   16.9760 O   0  0  0  0  0  0  0  0  0  0  0  0
   -1.7608   36.9254   16.5262 S   0  0  1  0  0  0  0  0  0  0  0  0
   -1.8792   38.0657   15.5553 O   0  0  0  0  0  0  0  0  0  0  0  0
   -0.7849   37.4778   17.8486 N   0  0  0  0  0  0  0  0  0  0  0  0
   -0.8337   36.6157   18.9908 C   0  0  0  0  0  0  0  0  0  0  0  0
   -0.0967   37.2802   20.1306 C   0  0  2  0  0  0  0  0  0  0  0  0
   -0.3473   36.6206   21.4816 C   0  0  0  0  0  0  0  0  0  0  0  0
   -0.8876   38.0458   21.1866 C   0  0  0  0  0  0  0  0  0  0  0  0
   -1.0318   35.5076   15.7793 C   0  0  0  0  0  0  0  0  0  0  0  0
   -0.1938   35.7431   14.7080 C   0  0  0  0  0  0  0  0  0  0  0  0
    0.4359   34.7113   14.0412 C   0  0  0  0  0  0  0  0  0  0  0  0
   -1.2811   34.2303   16.2361 C   0  0  0  0  0  0  0  0  0  0  0  0
   -0.6529   33.1979   15.5713 C   0  0  0  0  0  0  0  0  0  0  0  0
    0.1937   33.4287   14.4897 C   0  0  0  0  0  0  0  0  0  0  0  0
    0.8246   32.3896   13.8221 O   0  0  0  0  0  0  0  0  0  0  0  0
    1.5704   32.5862   12.6354 C   0  0  0  0  0  0  0  0  0  0  0  0
   -0.8366   31.8358   15.9534 N   0  0  0  0  0  0  0  0  0  0  0  0
    0.2367   31.0691   16.5371 C   0  0  0  0  0  0  0  0  0  0  0  0
    0.1213   29.9185   17.1791 O   0  0  0  0  0  0  0  0  0  0  0  0
    1.2930   29.5000   17.5777 C   0  0  0  0  0  0  0  0  0  0  0  0
    2.1957   30.4534   17.1554 C   0  0  0  0  0  0  0  0  0  0  0  0
    1.5348   31.4246   16.5103 N   0  0  0  0  0  0  0  0  0  0  0  0
    1.6641   28.2980   18.3154 C   0  0  0  0  0  0  0  0  0  0  0  0
    0.7334   27.4515   18.8827 C   0  0  0  0  0  0  0  0  0  0  0  0
    1.0989   26.3069   19.5854 C   0  0  0  0  0  0  0  0  0  0  0  0
    2.4345   25.9837   19.7350 C   0  0  0  0  0  0  0  0  0  0  0  0
    3.3692   26.8361   19.1638 C   0  0  0  0  0  0  0  0  0  0  0  0
    2.9987   27.9719   18.4667 C   0  0  0  0  0  0  0  0  0  0  0  0
    0.0200   25.4932   20.1361 C   0  0  0  0  0  0  0  0  0  0  0  0
   -1.2618   26.0400   20.1751 C   0  0  0  0  0  0  0  0  0  0  0  0
   -2.3030   25.3350   20.6739 N   0  0  0  0  0  0  0  0  0  0  0  0
   -2.1306   24.0743   21.1513 C   0  0  0  0  0  0  0  0  0  0  0  0
   -0.8660   23.5085   21.1237 C   0  0  0  0  0  0  0  0  0  0  0  0
    0.2084   24.2142   20.6178 C   0  0  0  0  0  0  0  0  0  0  0  0
  1  2  2  0
  2  3  2  0
  2  4  1  1
  4  5  1  0
  6  5  1  6
  6  7  1  0
  6  8  1  0
  7  8  1  0
  2  9  1  0
  9 10  2  0
 10 11  1  0
  9 12  1  0
 12 13  2  0
 11 14  2  0
 13 14  1  0
 14 15  1  0
 15 16  1  0
 13 17  1  0
 17 18  1  0
 18 19  1  0
 19 20  1  0
 20 21  2  0
 18 22  2  0
 21 22  1  0
 20 23  1  0
 23 24  2  0
 24 25  1  0
 25 26  2  0
 26 27  1  0
 23 28  1  0
 27 28  2  0
 25 29  1  0
 29 30  2  0
 30 31  1  0
 31 32  2  0
 32 33  1  0
 29 34  1  0
 33 34  2  0
M  END
$$$$
