1Y6B_AAX_A_201
     RDKit          3D

 34 38  0  0  0  0  0  0  0  0999 V2000
   22.0398   45.9179   38.4623 O   0  0  0  0  0  0  0  0  0  0  0  0
   23.0181   44.8404   38.8284 S   0  0  1  0  0  0  0  0  0  0  0  0
   22.3132   43.5211   38.6887 O   0  0  0  0  0  0  0  0  0  0  0  0
   24.3721   44.8150   37.7457 N   0  0  0  0  0  0  0  0  0  0  0  0
   24.0212   45.1078   36.3887 C   0  0  0  0  0  0  0  0  0  0  0  0
   25.2869   45.1801   35.5661 C   0  0  2  0  0  0  0  0  0  0  0  0
   25.6458   46.5951   35.1280 C   0  0  0  0  0  0  0  0  0  0  0  0
   25.1968   45.5360   34.0855 C   0  0  0  0  0  0  0  0  0  0  0  0
   23.5617   45.1162   40.4800 C   0  0  0  0  0  0  0  0  0  0  0  0
   23.1726   46.3061   41.0615 C   0  0  0  0  0  0  0  0  0  0  0  0
   23.5372   46.6344   42.3520 C   0  0  0  0  0  0  0  0  0  0  0  0
   24.3336   44.1970   41.1594 C   0  0  0  0  0  0  0  0  0  0  0  0
   24.6990   44.5230   42.4488 C   0  0  0  0  0  0  0  0  0  0  0  0
   24.3097   45.7219   43.0414 C   0  0  0  0  0  0  0  0  0  0  0  0
   24.6779   46.0483   44.3380 O   0  0  0  0  0  0  0  0  0  0  0  0
   24.2782   47.2528   44.9646 C   0  0  0  0  0  0  0  0  0  0  0  0
   25.4974   43.6510   43.2471 N   0  0  0  0  0  0  0  0  0  0  0  0
   25.7262   42.2800   42.8614 C   0  0  0  0  0  0  0  0  0  0  0  0
   24.9606   41.5487   42.0687 O   0  0  0  0  0  0  0  0  0  0  0  0
   25.4615   40.3500   41.9310 C   0  0  0  0  0  0  0  0  0  0  0  0
   26.6144   40.3358   42.6880 C   0  0  0  0  0  0  0  0  0  0  0  0
   26.7736   41.5359   43.2629 N   0  0  0  0  0  0  0  0  0  0  0  0
   24.9774   39.2081   41.1639 C   0  0  0  0  0  0  0  0  0  0  0  0
   23.6727   39.0995   40.7273 C   0  0  0  0  0  0  0  0  0  0  0  0
   23.2210   38.0045   39.9962 C   0  0  0  0  0  0  0  0  0  0  0  0
   24.0896   36.9759   39.6831 C   0  0  0  0  0  0  0  0  0  0  0  0
   25.4013   37.0866   40.1229 C   0  0  0  0  0  0  0  0  0  0  0  0
   25.8432   38.1778   40.8491 C   0  0  0  0  0  0  0  0  0  0  0  0
   21.8190   38.0091   39.5916 C   0  0  0  0  0  0  0  0  0  0  0  0
   21.0795   39.1731   39.7961 C   0  0  0  0  0  0  0  0  0  0  0  0
   19.7756   39.2389   39.4420 N   0  0  0  0  0  0  0  0  0  0  0  0
   19.1486   38.1736   38.8771 C   0  0  0  0  0  0  0  0  0  0  0  0
   19.8621   37.0052   38.6634 C   0  0  0  0  0  0  0  0  0  0  0  0
   21.1942   36.9206   39.0190 C   0  0  0  0  0  0  0  0  0  0  0  0
  1  2  2  0
  2  3  2  0
  2  4  1  6
  4  5  1  0
  6  5  1  1
  6  7  1  0
  6  8  1  0
  7  8  1  0
  2  9  1  0
  9 10  2  0
 10 11  1  0
  9 12  1  0
 12 13  2  0
 11 14  2  0
 13 14  1  0
 14 15  1  0
 15 16  1  0
 13 17  1  0
 17 18  1  0
 18 19  1  0
 19 20  1  0
 20 21  2  0
 18 22  2  0
 21 22  1  0
 20 23  1  0
 23 24  2  0
 24 25  1  0
 25 26  2  0
 26 27  1  0
 23 28  1  0
 27 28  2  0
 25 29  1  0
 29 30  2  0
 30 31  1  0
 31 32  2  0
 32 33  1  0
 29 34  1  0
 33 34  2  0
M  END
$$$$
