1Y6B_AAX_A_201
     RDKit          3D

 34 38  0  0  0  0  0  0  0  0999 V2000
   -7.1635   28.3813   20.1422 O   0  0  0  0  0  0  0  0  0  0  0  0
   -7.3839   28.9807   21.5002 S   0  0  1  0  0  0  0  0  0  0  0  0
   -8.6828   28.4418   22.0287 O   0  0  0  0  0  0  0  0  0  0  0  0
   -6.1421   28.5080   22.6141 N   0  0  0  0  0  0  0  0  0  0  0  0
   -6.5197   27.4132   23.4562 C   0  0  0  0  0  0  0  0  0  0  0  0
   -5.3401   27.0410   24.3244 C   0  0  2  0  0  0  0  0  0  0  0  0
   -4.6959   25.7151   23.9369 C   0  0  0  0  0  0  0  0  0  0  0  0
   -5.4596   25.8587   25.2809 C   0  0  0  0  0  0  0  0  0  0  0  0
   -7.4242   30.7333   21.3380 C   0  0  0  0  0  0  0  0  0  0  0  0
   -8.4345   31.3873   22.0141 C   0  0  0  0  0  0  0  0  0  0  0  0
   -8.5688   32.7603   21.9632 C   0  0  0  0  0  0  0  0  0  0  0  0
   -6.4995   31.4193   20.5786 C   0  0  0  0  0  0  0  0  0  0  0  0
   -6.6318   32.7912   20.5265 C   0  0  0  0  0  0  0  0  0  0  0  0
   -7.6489   33.4571   21.2063 C   0  0  0  0  0  0  0  0  0  0  0  0
   -7.7807   34.8366   21.1528 O   0  0  0  0  0  0  0  0  0  0  0  0
   -8.7616   35.5388   21.8931 C   0  0  0  0  0  0  0  0  0  0  0  0
   -5.7352   33.6047   19.7719 N   0  0  0  0  0  0  0  0  0  0  0  0
   -4.5543   33.0489   19.1576 C   0  0  0  0  0  0  0  0  0  0  0  0
   -3.6415   33.7122   18.4676 O   0  0  0  0  0  0  0  0  0  0  0  0
   -2.7053   32.9006   18.0531 C   0  0  0  0  0  0  0  0  0  0  0  0
   -3.0599   31.6508   18.5163 C   0  0  0  0  0  0  0  0  0  0  0  0
   -4.2080   31.7488   19.2010 N   0  0  0  0  0  0  0  0  0  0  0  0
   -1.5070   33.1671   17.2660 C   0  0  0  0  0  0  0  0  0  0  0  0
   -0.4801   32.2544   17.1349 C   0  0  0  0  0  0  0  0  0  0  0  0
    0.6599   32.5195   16.3815 C   0  0  0  0  0  0  0  0  0  0  0  0
    0.7932   33.7321   15.7315 C   0  0  0  0  0  0  0  0  0  0  0  0
   -0.2405   34.6489   15.8643 C   0  0  0  0  0  0  0  0  0  0  0  0
   -1.3705   34.3785   16.6148 C   0  0  0  0  0  0  0  0  0  0  0  0
    1.6736   31.4716   16.3200 C   0  0  0  0  0  0  0  0  0  0  0  0
    1.4751   30.3195   17.0794 C   0  0  0  0  0  0  0  0  0  0  0  0
    2.3789   29.3131   17.0642 N   0  0  0  0  0  0  0  0  0  0  0  0
    3.5059   29.3953   16.3091 C   0  0  0  0  0  0  0  0  0  0  0  0
    3.7261   30.5303   15.5454 C   0  0  0  0  0  0  0  0  0  0  0  0
    2.8137   31.5674   15.5491 C   0  0  0  0  0  0  0  0  0  0  0  0
  1  2  2  0
  2  3  2  0
  2  4  1  1
  4  5  1  0
  6  5  1  6
  6  7  1  0
  6  8  1  0
  7  8  1  0
  2  9  1  0
  9 10  2  0
 10 11  1  0
  9 12  1  0
 12 13  2  0
 11 14  2  0
 13 14  1  0
 14 15  1  0
 15 16  1  0
 13 17  1  0
 17 18  1  0
 18 19  1  0
 19 20  1  0
 20 21  2  0
 18 22  2  0
 21 22  1  0
 20 23  1  0
 23 24  2  0
 24 25  1  0
 25 26  2  0
 26 27  1  0
 23 28  1  0
 27 28  2  0
 25 29  1  0
 29 30  2  0
 30 31  1  0
 31 32  2  0
 32 33  1  0
 29 34  1  0
 33 34  2  0
M  END
$$$$
