1Y6B_AAX_A_201
     RDKit          3D

 34 38  0  0  0  0  0  0  0  0999 V2000
   -2.3242   31.7896   18.5450 O   0  0  0  0  0  0  0  0  0  0  0  0
   -1.4175   32.7991   17.9039 S   0  0  1  0  0  0  0  0  0  0  0  0
   -2.1701   33.4262   16.7649 O   0  0  0  0  0  0  0  0  0  0  0  0
   -1.0015   34.0718   19.0055 N   0  0  0  0  0  0  0  0  0  0  0  0
   -0.6322   33.6005   20.3062 C   0  0  0  0  0  0  0  0  0  0  0  0
   -0.4357   34.7919   21.2150 C   0  0  2  0  0  0  0  0  0  0  0  0
   -0.1253   34.4100   22.6574 C   0  0  0  0  0  0  0  0  0  0  0  0
   -1.4732   35.0885   22.2932 C   0  0  0  0  0  0  0  0  0  0  0  0
    0.0346   31.9732   17.3482 C   0  0  0  0  0  0  0  0  0  0  0  0
    0.8229   32.6608   16.4475 C   0  0  0  0  0  0  0  0  0  0  0  0
    1.9860   32.1166   15.9407 C   0  0  0  0  0  0  0  0  0  0  0  0
    0.3701   30.7090   17.7859 C   0  0  0  0  0  0  0  0  0  0  0  0
    1.5318   30.1634   17.2808 C   0  0  0  0  0  0  0  0  0  0  0  0
    2.3316   30.8519   16.3718 C   0  0  0  0  0  0  0  0  0  0  0  0
    3.4994   30.3020   15.8648 O   0  0  0  0  0  0  0  0  0  0  0  0
    4.3218   30.9815   14.9346 C   0  0  0  0  0  0  0  0  0  0  0  0
    1.9782   28.8626   17.6600 N   0  0  0  0  0  0  0  0  0  0  0  0
    1.3919   28.1645   18.7778 C   0  0  0  0  0  0  0  0  0  0  0  0
    1.7050   26.9498   19.1972 O   0  0  0  0  0  0  0  0  0  0  0  0
    0.9797   26.6251   20.2341 C   0  0  0  0  0  0  0  0  0  0  0  0
    0.1623   27.7095   20.4749 C   0  0  0  0  0  0  0  0  0  0  0  0
    0.4223   28.6617   19.5682 N   0  0  0  0  0  0  0  0  0  0  0  0
    0.9669   25.4035   21.0305 C   0  0  0  0  0  0  0  0  0  0  0  0
    1.8608   24.3711   20.8308 C   0  0  0  0  0  0  0  0  0  0  0  0
    1.8391   23.2090   21.5966 C   0  0  0  0  0  0  0  0  0  0  0  0
    0.8992   23.0582   22.5988 C   0  0  0  0  0  0  0  0  0  0  0  0
    0.0009   24.0973   22.7984 C   0  0  0  0  0  0  0  0  0  0  0  0
    0.0285   25.2495   22.0334 C   0  0  0  0  0  0  0  0  0  0  0  0
    2.8388   22.1918   21.2879 C   0  0  0  0  0  0  0  0  0  0  0  0
    2.8816   21.0487   22.0849 C   0  0  0  0  0  0  0  0  0  0  0  0
    3.7856   20.0706   21.8486 N   0  0  0  0  0  0  0  0  0  0  0  0
    4.6779   20.1729   20.8287 C   0  0  0  0  0  0  0  0  0  0  0  0
    4.6556   21.2994   20.0222 C   0  0  0  0  0  0  0  0  0  0  0  0
    3.7392   22.3078   20.2491 C   0  0  0  0  0  0  0  0  0  0  0  0
  1  2  2  0
  2  3  2  0
  2  4  1  1
  4  5  1  0
  6  5  1  6
  6  7  1  0
  6  8  1  0
  7  8  1  0
  2  9  1  0
  9 10  2  0
 10 11  1  0
  9 12  1  0
 12 13  2  0
 11 14  2  0
 13 14  1  0
 14 15  1  0
 15 16  1  0
 13 17  1  0
 17 18  1  0
 18 19  1  0
 19 20  1  0
 20 21  2  0
 18 22  2  0
 21 22  1  0
 20 23  1  0
 23 24  2  0
 24 25  1  0
 25 26  2  0
 26 27  1  0
 23 28  1  0
 27 28  2  0
 25 29  1  0
 29 30  2  0
 30 31  1  0
 31 32  2  0
 32 33  1  0
 29 34  1  0
 33 34  2  0
M  END
$$$$
