1Y6B_AAX_A_201
     RDKit          3D

 34 38  0  0  0  0  0  0  0  0999 V2000
   -3.4352   32.1282   48.7996 O   0  0  0  0  0  0  0  0  0  0  0  0
   -4.0290   32.0191   47.4257 S   0  0  1  0  0  0  0  0  0  0  0  0
   -4.7155   30.6861   47.3327 O   0  0  0  0  0  0  0  0  0  0  0  0
   -5.2340   33.2359   47.1543 N   0  0  0  0  0  0  0  0  0  0  0  0
   -5.6036   33.9456   48.3418 C   0  0  0  0  0  0  0  0  0  0  0  0
   -6.6733   34.9535   47.9902 C   0  0  2  0  0  0  0  0  0  0  0  0
   -6.1511   36.3817   47.8873 C   0  0  0  0  0  0  0  0  0  0  0  0
   -7.1121   35.9734   49.0362 C   0  0  0  0  0  0  0  0  0  0  0  0
   -2.7333   32.1679   46.2431 C   0  0  0  0  0  0  0  0  0  0  0  0
   -2.9869   31.6493   44.9892 C   0  0  0  0  0  0  0  0  0  0  0  0
   -2.0479   31.7067   43.9788 C   0  0  0  0  0  0  0  0  0  0  0  0
   -1.5299   32.7687   46.5480 C   0  0  0  0  0  0  0  0  0  0  0  0
   -0.5903   32.8272   45.5399 C   0  0  0  0  0  0  0  0  0  0  0  0
   -0.8398   32.3059   44.2726 C   0  0  0  0  0  0  0  0  0  0  0  0
    0.1059   32.3653   43.2600 O   0  0  0  0  0  0  0  0  0  0  0  0
   -0.1445   31.8839   41.9528 C   0  0  0  0  0  0  0  0  0  0  0  0
    0.6902   33.4234   45.7394 N   0  0  0  0  0  0  0  0  0  0  0  0
    0.9607   34.2529   46.8881 C   0  0  0  0  0  0  0  0  0  0  0  0
    2.1396   34.7281   47.2539 O   0  0  0  0  0  0  0  0  0  0  0  0
    2.0252   35.4417   48.3422 C   0  0  0  0  0  0  0  0  0  0  0  0
    0.6870   35.4077   48.6744 C   0  0  0  0  0  0  0  0  0  0  0  0
    0.0313   34.6687   47.7687 N   0  0  0  0  0  0  0  0  0  0  0  0
    3.0368   36.1572   49.1113 C   0  0  0  0  0  0  0  0  0  0  0  0
    4.3712   36.1730   48.7595 C   0  0  0  0  0  0  0  0  0  0  0  0
    5.3286   36.8588   49.5014 C   0  0  0  0  0  0  0  0  0  0  0  0
    4.9562   37.5567   50.6349 C   0  0  0  0  0  0  0  0  0  0  0  0
    3.6138   37.5398   50.9874 C   0  0  0  0  0  0  0  0  0  0  0  0
    2.6678   36.8560   50.2452 C   0  0  0  0  0  0  0  0  0  0  0  0
    6.7062   36.7996   49.0239 C   0  0  0  0  0  0  0  0  0  0  0  0
    7.0316   35.8331   48.0733 C   0  0  0  0  0  0  0  0  0  0  0  0
    8.2916   35.7284   47.5922 N   0  0  0  0  0  0  0  0  0  0  0  0
    9.2763   36.5612   48.0206 C   0  0  0  0  0  0  0  0  0  0  0  0
    8.9782   37.5303   48.9651 C   0  0  0  0  0  0  0  0  0  0  0  0
    7.6970   37.6512   49.4671 C   0  0  0  0  0  0  0  0  0  0  0  0
  1  2  2  0
  2  3  2  0
  2  4  1  6
  4  5  1  0
  6  5  1  1
  6  7  1  0
  6  8  1  0
  7  8  1  0
  2  9  1  0
  9 10  2  0
 10 11  1  0
  9 12  1  0
 12 13  2  0
 11 14  2  0
 13 14  1  0
 14 15  1  0
 15 16  1  0
 13 17  1  0
 17 18  1  0
 18 19  1  0
 19 20  1  0
 20 21  2  0
 18 22  2  0
 21 22  1  0
 20 23  1  0
 23 24  2  0
 24 25  1  0
 25 26  2  0
 26 27  1  0
 23 28  1  0
 27 28  2  0
 25 29  1  0
 29 30  2  0
 30 31  1  0
 31 32  2  0
 32 33  1  0
 29 34  1  0
 33 34  2  0
M  END
$$$$
