1Y6B_AAX_A_201
     RDKit          3D

 34 38  0  0  0  0  0  0  0  0999 V2000
   23.8857   25.4212   34.4012 O   0  0  0  0  0  0  0  0  0  0  0  0
   22.8511   26.3299   33.8045 S   0  0  1  0  0  0  0  0  0  0  0  0
   22.0117   26.8629   34.9307 O   0  0  0  0  0  0  0  0  0  0  0  0
   23.5785   27.6932   33.0180 N   0  0  0  0  0  0  0  0  0  0  0  0
   24.7552   27.3596   32.2734 C   0  0  0  0  0  0  0  0  0  0  0  0
   25.1989   28.5783   31.4977 C   0  0  2  0  0  0  0  0  0  0  0  0
   26.0685   28.2458   30.2909 C   0  0  0  0  0  0  0  0  0  0  0  0
   26.6697   28.9825   31.5180 C   0  0  0  0  0  0  0  0  0  0  0  0
   21.8888   25.4043   32.6570 C   0  0  0  0  0  0  0  0  0  0  0  0
   21.7976   24.0468   32.8898 C   0  0  0  0  0  0  0  0  0  0  0  0
   21.0712   23.2172   32.0591 C   0  0  0  0  0  0  0  0  0  0  0  0
   21.2589   25.9985   31.5835 C   0  0  0  0  0  0  0  0  0  0  0  0
   20.5325   25.1714   30.7523 C   0  0  0  0  0  0  0  0  0  0  0  0
   20.4365   23.8010   30.9816 C   0  0  0  0  0  0  0  0  0  0  0  0
   19.7059   22.9706   30.1449 O   0  0  0  0  0  0  0  0  0  0  0  0
   19.5625   21.5827   30.3826 C   0  0  0  0  0  0  0  0  0  0  0  0
   19.8403   25.6733   29.6104 N   0  0  0  0  0  0  0  0  0  0  0  0
   20.1323   26.9784   29.0698 C   0  0  0  0  0  0  0  0  0  0  0  0
   19.7174   27.4589   27.9095 O   0  0  0  0  0  0  0  0  0  0  0  0
   20.1668   28.6728   27.7324 C   0  0  0  0  0  0  0  0  0  0  0  0
   20.9096   28.9658   28.8569 C   0  0  0  0  0  0  0  0  0  0  0  0
   20.8848   27.9108   29.6833 N   0  0  0  0  0  0  0  0  0  0  0  0
   19.9765   29.5957   26.6195 C   0  0  0  0  0  0  0  0  0  0  0  0
   20.6922   30.7685   26.4898 C   0  0  0  0  0  0  0  0  0  0  0  0
   20.5019   31.6427   25.4234 C   0  0  0  0  0  0  0  0  0  0  0  0
   19.5693   31.3495   24.4463 C   0  0  0  0  0  0  0  0  0  0  0  0
   18.8503   30.1696   24.5781 C   0  0  0  0  0  0  0  0  0  0  0  0
   19.0449   29.3055   25.6407 C   0  0  0  0  0  0  0  0  0  0  0  0
   21.3223   32.8493   25.3996 C   0  0  0  0  0  0  0  0  0  0  0  0
   22.4073   32.9239   26.2717 C   0  0  0  0  0  0  0  0  0  0  0  0
   23.2049   34.0162   26.2965 N   0  0  0  0  0  0  0  0  0  0  0  0
   22.9725   35.0720   25.4729 C   0  0  0  0  0  0  0  0  0  0  0  0
   21.9001   35.0220   24.5968 C   0  0  0  0  0  0  0  0  0  0  0  0
   21.0755   33.9145   24.5583 C   0  0  0  0  0  0  0  0  0  0  0  0
  1  2  2  0
  2  3  2  0
  2  4  1  6
  4  5  1  0
  6  5  1  1
  6  7  1  0
  6  8  1  0
  7  8  1  0
  2  9  1  0
  9 10  2  0
 10 11  1  0
  9 12  1  0
 12 13  2  0
 11 14  2  0
 13 14  1  0
 14 15  1  0
 15 16  1  0
 13 17  1  0
 17 18  1  0
 18 19  1  0
 19 20  1  0
 20 21  2  0
 18 22  2  0
 21 22  1  0
 20 23  1  0
 23 24  2  0
 24 25  1  0
 25 26  2  0
 26 27  1  0
 23 28  1  0
 27 28  2  0
 25 29  1  0
 29 30  2  0
 30 31  1  0
 31 32  2  0
 32 33  1  0
 29 34  1  0
 33 34  2  0
M  END
$$$$
