1Y6B_AAX_A_201
     RDKit          3D

 34 38  0  0  0  0  0  0  0  0999 V2000
   -0.3919   35.2305   21.0408 O   0  0  0  0  0  0  0  0  0  0  0  0
   -1.5058   35.4392   20.0570 S   0  0  1  0  0  0  0  0  0  0  0  0
   -1.9248   36.8793   20.1449 O   0  0  0  0  0  0  0  0  0  0  0  0
   -0.9791   35.1574   18.4293 N   0  0  0  0  0  0  0  0  0  0  0  0
   -0.0098   34.1093   18.3183 C   0  0  0  0  0  0  0  0  0  0  0  0
    0.5015   34.0714   16.8967 C   0  0  2  0  0  0  0  0  0  0  0  0
   -0.3930   34.8129   15.9102 C   0  0  0  0  0  0  0  0  0  0  0  0
   -0.2618   33.2672   15.8490 C   0  0  0  0  0  0  0  0  0  0  0  0
   -2.8268   34.3507   20.4687 C   0  0  0  0  0  0  0  0  0  0  0  0
   -4.0357   34.5935   19.8482 C   0  0  0  0  0  0  0  0  0  0  0  0
   -5.1445   33.8076   20.0907 C   0  0  0  0  0  0  0  0  0  0  0  0
   -2.6674   33.3114   21.3613 C   0  0  0  0  0  0  0  0  0  0  0  0
   -3.7739   32.5250   21.6051 C   0  0  0  0  0  0  0  0  0  0  0  0
   -4.9965   32.7645   20.9823 C   0  0  0  0  0  0  0  0  0  0  0  0
   -6.1083   31.9729   21.2284 O   0  0  0  0  0  0  0  0  0  0  0  0
   -7.3396   32.1559   20.5549 C   0  0  0  0  0  0  0  0  0  0  0  0
   -3.7284   31.4232   22.5101 N   0  0  0  0  0  0  0  0  0  0  0  0
   -2.8198   30.3217   22.3060 C   0  0  0  0  0  0  0  0  0  0  0  0
   -1.9415   30.1992   21.3246 O   0  0  0  0  0  0  0  0  0  0  0  0
   -1.2810   29.0782   21.4420 C   0  0  0  0  0  0  0  0  0  0  0  0
   -1.7818   28.4638   22.5706 C   0  0  0  0  0  0  0  0  0  0  0  0
   -2.7363   29.2398   23.1027 N   0  0  0  0  0  0  0  0  0  0  0  0
   -0.2253   28.5141   20.6088 C   0  0  0  0  0  0  0  0  0  0  0  0
    0.3514   29.2053   19.5627 C   0  0  0  0  0  0  0  0  0  0  0  0
    1.3582   28.6569   18.7733 C   0  0  0  0  0  0  0  0  0  0  0  0
    1.8146   27.3766   19.0248 C   0  0  0  0  0  0  0  0  0  0  0  0
    1.2335   26.6828   20.0772 C   0  0  0  0  0  0  0  0  0  0  0  0
    0.2334   27.2343   20.8576 C   0  0  0  0  0  0  0  0  0  0  0  0
    1.8873   29.4902   17.6986 C   0  0  0  0  0  0  0  0  0  0  0  0
    3.0544   29.0753   17.0588 C   0  0  0  0  0  0  0  0  0  0  0  0
    3.5935   29.8050   16.0554 N   0  0  0  0  0  0  0  0  0  0  0  0
    3.0143   30.9627   15.6418 C   0  0  0  0  0  0  0  0  0  0  0  0
    1.8535   31.3965   16.2620 C   0  0  0  0  0  0  0  0  0  0  0  0
    1.2894   30.6638   17.2881 C   0  0  0  0  0  0  0  0  0  0  0  0
  1  2  2  0
  2  3  2  0
  2  4  1  6
  4  5  1  0
  6  5  1  1
  6  7  1  0
  6  8  1  0
  7  8  1  0
  2  9  1  0
  9 10  2  0
 10 11  1  0
  9 12  1  0
 12 13  2  0
 11 14  2  0
 13 14  1  0
 14 15  1  0
 15 16  1  0
 13 17  1  0
 17 18  1  0
 18 19  1  0
 19 20  1  0
 20 21  2  0
 18 22  2  0
 21 22  1  0
 20 23  1  0
 23 24  2  0
 24 25  1  0
 25 26  2  0
 26 27  1  0
 23 28  1  0
 27 28  2  0
 25 29  1  0
 29 30  2  0
 30 31  1  0
 31 32  2  0
 32 33  1  0
 29 34  1  0
 33 34  2  0
M  END
$$$$
