1Y6B_AAX_A_201
     RDKit          3D

 34 38  0  0  0  0  0  0  0  0999 V2000
   -7.9428   34.9797   19.9106 O   0  0  0  0  0  0  0  0  0  0  0  0
   -6.8018   35.4854   20.7441 S   0  0  1  0  0  0  0  0  0  0  0  0
   -7.3690   35.9507   22.0551 O   0  0  0  0  0  0  0  0  0  0  0  0
   -5.6634   34.2261   21.0965 N   0  0  0  0  0  0  0  0  0  0  0  0
   -5.4866   33.3006   20.0182 C   0  0  0  0  0  0  0  0  0  0  0  0
   -4.5555   32.2003   20.4724 C   0  0  2  0  0  0  0  0  0  0  0  0
   -3.9141   31.4346   19.3212 C   0  0  0  0  0  0  0  0  0  0  0  0
   -4.9524   30.7448   20.2466 C   0  0  0  0  0  0  0  0  0  0  0  0
   -6.0123   36.7968   19.8744 C   0  0  0  0  0  0  0  0  0  0  0  0
   -6.5308   38.0609   20.0711 C   0  0  0  0  0  0  0  0  0  0  0  0
   -5.9961   39.1683   19.4437 C   0  0  0  0  0  0  0  0  0  0  0  0
   -4.9349   36.5781   19.0414 C   0  0  0  0  0  0  0  0  0  0  0  0
   -4.3992   37.6832   18.4136 C   0  0  0  0  0  0  0  0  0  0  0  0
   -4.9176   38.9612   18.6078 C   0  0  0  0  0  0  0  0  0  0  0  0
   -4.3779   40.0714   17.9758 O   0  0  0  0  0  0  0  0  0  0  0  0
   -4.8688   41.3824   18.1847 C   0  0  0  0  0  0  0  0  0  0  0  0
   -3.2851   37.5785   17.5288 N   0  0  0  0  0  0  0  0  0  0  0  0
   -2.5056   36.3678   17.4439 C   0  0  0  0  0  0  0  0  0  0  0  0
   -1.5044   36.1348   16.6117 O   0  0  0  0  0  0  0  0  0  0  0  0
   -1.0218   34.9361   16.8041 C   0  0  0  0  0  0  0  0  0  0  0  0
   -1.7727   34.3883   17.8232 C   0  0  0  0  0  0  0  0  0  0  0  0
   -2.6918   35.2811   18.2163 N   0  0  0  0  0  0  0  0  0  0  0  0
    0.0721   34.2413   16.1352 C   0  0  0  0  0  0  0  0  0  0  0  0
    0.5288   33.0028   16.5379 C   0  0  0  0  0  0  0  0  0  0  0  0
    1.5744   32.3489   15.8924 C   0  0  0  0  0  0  0  0  0  0  0  0
    2.1945   32.9390   14.8071 C   0  0  0  0  0  0  0  0  0  0  0  0
    1.7340   34.1846   14.4034 C   0  0  0  0  0  0  0  0  0  0  0  0
    0.6943   34.8285   15.0497 C   0  0  0  0  0  0  0  0  0  0  0  0
    1.9630   31.0426   16.4137 C   0  0  0  0  0  0  0  0  0  0  0  0
    3.1389   30.4669   15.9349 C   0  0  0  0  0  0  0  0  0  0  0  0
    3.5518   29.2580   16.3797 N   0  0  0  0  0  0  0  0  0  0  0  0
    2.8334   28.5696   17.3055 C   0  0  0  0  0  0  0  0  0  0  0  0
    1.6609   29.1205   17.7970 C   0  0  0  0  0  0  0  0  0  0  0  0
    1.2245   30.3539   17.3538 C   0  0  0  0  0  0  0  0  0  0  0  0
  1  2  2  0
  2  3  2  0
  2  4  1  1
  4  5  1  0
  6  5  1  6
  6  7  1  0
  6  8  1  0
  7  8  1  0
  2  9  1  0
  9 10  2  0
 10 11  1  0
  9 12  1  0
 12 13  2  0
 11 14  2  0
 13 14  1  0
 14 15  1  0
 15 16  1  0
 13 17  1  0
 17 18  1  0
 18 19  1  0
 19 20  1  0
 20 21  2  0
 18 22  2  0
 21 22  1  0
 20 23  1  0
 23 24  2  0
 24 25  1  0
 25 26  2  0
 26 27  1  0
 23 28  1  0
 27 28  2  0
 25 29  1  0
 29 30  2  0
 30 31  1  0
 31 32  2  0
 32 33  1  0
 29 34  1  0
 33 34  2  0
M  END
$$$$
