
     RDKit          3D

  8  7  0  0  0  0  0  0  0  0999 V2000
  -59.2996  -28.6269  -40.6597 C   0  0  0  0  0  0  0  0  0  0  0  0
  -60.0733  -28.1668  -39.8376 O   0  0  0  0  0  0  0  0  0  0  0  0
  -58.1350  -29.1822  -40.2808 O   0  0  0  0  0  0  0  0  0  0  0  0
  -59.4839  -28.6191  -42.1483 C   0  0  0  0  0  0  0  0  0  0  0  0
  -58.1538  -28.3907  -42.8377 C   0  0  0  0  0  0  0  0  0  0  0  0
  -57.6321  -27.0223  -42.5133 C   0  0  0  0  0  0  0  0  0  0  0  0
  -56.4733  -26.7352  -42.2663 O   0  0  0  0  0  0  0  0  0  0  0  0
  -58.5994  -26.0887  -42.4818 O   0  0  0  0  0  0  0  0  0  0  0  0
  1  2  2  0
  1  3  1  0
  1  4  1  0
  4  5  1  0
  5  6  1  0
  6  7  2  0
  6  8  1  0
M  END
