7N4N_0BK_A_401
     RDKit          3D

 32 34  0  0  0  0  0  0  0  0999 V2000
   25.7177  -12.5630  -15.5675 C   0  0  0  0  0  0  0  0  0  0  0  0
   24.2600  -12.3684  -17.4816 C   0  0  0  0  0  0  0  0  0  0  0  0
   22.9787  -11.8031  -17.3248 C   0  0  0  0  0  0  0  0  0  0  0  0
   22.4813  -11.0196  -18.3883 C   0  0  0  0  0  0  0  0  0  0  0  0
   24.4597  -11.3887  -19.5386 C   0  0  0  0  0  0  0  0  0  0  0  0
   19.9646   -8.2094  -18.4881 C   0  0  0  0  0  0  0  0  0  0  0  0
   17.9755   -6.3053  -18.9426 C   0  0  0  0  0  0  0  0  0  0  0  0
   19.2970   -5.8608  -18.7760 C   0  0  0  0  0  0  0  0  0  0  0  0
   20.2536   -6.8404  -18.5635 C   0  0  0  0  0  0  0  0  0  0  0  0
   19.6684   -4.3743  -18.8729 C   0  0  2  0  0  0  0  0  0  0  0  0
   20.6545   -4.5073  -21.2344 C   0  0  0  0  0  0  0  0  0  0  0  0
   22.0264   -3.9391  -20.7977 C   0  0  2  0  0  0  0  0  0  0  0  0
   23.9165   -1.6081  -21.3372 C   0  0  0  0  0  0  0  0  0  0  0  0
   24.8024  -13.1609  -16.5283 O   0  0  0  0  0  0  0  0  0  0  0  0
   23.2618  -10.8385  -19.4576 N   0  0  0  0  0  0  0  0  0  0  0  0
   24.9599  -12.1318  -18.5844 N   0  0  0  0  0  0  0  0  0  0  0  0
   21.1246  -10.4200  -18.3774 C   0  0  0  0  0  0  0  0  0  0  0  0
   20.1208  -11.1259  -18.5339 O   0  0  0  0  0  0  0  0  0  0  0  0
   21.0654   -9.0809  -18.2598 N   0  0  0  0  0  0  0  0  0  0  0  0
   18.6290   -8.6000  -18.6612 C   0  0  0  0  0  0  0  0  0  0  0  0
   17.6527   -7.6464  -18.8620 C   0  0  0  0  0  0  0  0  0  0  0  0
   16.9597   -5.4285  -19.1899 F   0  0  0  0  0  0  0  0  0  0  0  0
   18.8213   -3.5210  -17.9307 C   0  0  0  0  0  0  0  0  0  0  0  0
   19.1169   -2.1688  -18.1434 F   0  0  0  0  0  0  0  0  0  0  0  0
   19.5235   -3.9335  -20.3447 C   0  0  0  0  0  0  0  0  0  0  0  0
   23.1279   -4.8080  -21.4174 C   0  0  0  0  0  0  0  0  0  0  0  0
   22.0860   -4.0038  -19.2766 C   0  0  0  0  0  0  0  0  0  0  0  0
   23.3135   -3.8621  -18.7073 N   0  0  0  0  0  0  0  0  0  0  0  0
   21.0647   -4.1296  -18.4784 N   0  0  0  0  0  0  0  0  0  0  0  0
   22.1762   -2.1752  -21.3783 S   0  0  2  0  0  0  0  0  0  0  0  0
   21.5307   -1.2473  -20.5060 O   0  0  0  0  0  0  0  0  0  0  0  0
   21.8261   -2.1374  -22.7569 O   0  0  0  0  0  0  0  0  0  0  0  0
  2  3  2  0
  3  4  1  0
  7  8  2  0
  8  9  1  0
  6  9  2  0
  8 10  1  0
 11 12  1  0
  2 14  1  0
  1 14  1  0
  4 15  2  0
  5 15  1  0
  2 16  1  0
  5 16  2  0
  4 17  1  0
 17 18  2  0
  6 19  1  0
 17 19  1  0
  6 20  1  0
  7 21  1  0
 20 21  2  0
  7 22  1  0
 10 23  1  1
 23 24  1  0
 11 25  1  0
 10 25  1  0
 12 26  1  6
 12 27  1  0
 27 28  1  0
 27 29  2  0
 10 29  1  0
 30 13  1  6
 12 30  1  0
 30 31  2  0
 30 32  2  0
M  END
