@<TRIPOS>MOLECULE
1UML_FR4_A_1001
 60 63 0 0 0
SMALL
GASTEIGER

@<TRIPOS>ATOM
      1 C          -0.0066   -4.9192    1.5517 C.ar    1  UNL1        0.0368
      2 N          -0.5326   -3.7561    1.9690 N.ar    1  UNL1       -0.3308
      3 C          -0.6313   -3.8587    3.3108 C.ar    1  UNL1        0.0971
      4 N          -0.1771   -5.0416    3.7739 N.ar    1  UNL1       -0.2311
      5 C           0.2168   -5.7033    2.6657 C.ar    1  UNL1        0.1428
      6 C           0.7957   -7.0582    2.6948 C.2     1  UNL1        0.2613
      7 O           0.9396   -7.6432    3.8027 O.2     1  UNL1       -0.2687
      8 N           1.2027   -7.7227    1.4950 N.am    1  UNL1       -0.3240
      9 C          -0.9349   -2.6267    1.1202 C.3     1  UNL1        0.0600
     10 C          -2.4597   -2.4486    1.1606 C.3     1  UNL1        0.0650
     11 O          -3.0857   -3.6208    0.7173 O.3     1  UNL1       -0.3930
     12 C          -0.2246   -1.3259    1.5511 C.3     1  UNL1       -0.0119
     13 C           1.3083   -1.4174    1.4845 C.3     1  UNL1        0.0252
     14 N           1.7713   -1.6816    0.1199 N.ar    1  UNL1       -0.3465
     15 C           2.2486   -2.8620   -0.3448 C.ar    1  UNL1        0.0057
     16 C           2.5684   -2.7630   -1.6938 C.ar    1  UNL1       -0.0364
     17 C           2.2683   -1.4635   -2.0439 C.ar    1  UNL1       -0.0000
     18 C           1.7896   -0.8313   -0.9266 C.ar    1  UNL1        0.0508
     19 C           2.3973   -0.8063   -3.2640 C.ar    1  UNL1       -0.0508
     20 C           2.0096    0.5443   -3.3286 C.ar    1  UNL1       -0.0398
     21 C           1.4956    1.2058   -2.1821 C.ar    1  UNL1        0.0354
     22 C           1.4048    0.5112   -0.9575 C.ar    1  UNL1       -0.0164
     23 N           1.1091    2.5877   -2.2280 N.am    1  UNL1       -0.2854
     24 C           0.3644    3.1764   -3.3080 C.2     1  UNL1        0.2175
     25 O           0.0705    2.5048   -4.3328 O.2     1  UNL1       -0.2755
     26 C          -0.1584    4.5762   -3.1730 C.3     1  UNL1        0.0282
     27 C          -1.5850    4.5929   -2.6052 C.3     1  UNL1       -0.0194
     28 C          -1.2045    4.6715   -0.1067 C.ar    1  UNL1       -0.0586
     29 C          -1.6537    3.9644   -1.2347 C.ar    1  UNL1       -0.0469
     30 C          -2.1017    2.6404   -1.0808 C.ar    1  UNL1       -0.0586
     31 C          -2.1090    2.0404    0.1829 C.ar    1  UNL1       -0.0615
     32 C          -1.6594    2.7515    1.2985 C.ar    1  UNL1       -0.0617
     33 C          -1.2084    4.0661    1.1543 C.ar    1  UNL1       -0.0615
     34 H           0.1922   -5.1664    0.5191 H       1  UNL1        0.0833
     35 H          -1.0311   -3.0831    3.9508 H       1  UNL1        0.1029
     36 H           1.6063   -8.6854    1.5427 H       1  UNL1        0.1453
     37 H           1.1060   -7.2735    0.5573 H       1  UNL1        0.1453
     38 H          -0.6564   -2.8408    0.0632 H       1  UNL1        0.0551
     39 H          -2.7900   -2.2164    2.1986 H       1  UNL1        0.0578
     40 H          -2.7514   -1.6028    0.4974 H       1  UNL1        0.0578
     41 H          -4.0613   -3.4424    0.7515 H       1  UNL1        0.2095
     42 H          -0.5181   -1.0628    2.5903 H       1  UNL1        0.0303
     43 H          -0.5637   -0.4953    0.8978 H       1  UNL1        0.0303
     44 H           1.6719   -2.2118    2.1717 H       1  UNL1        0.0492
     45 H           1.7442   -0.4589    1.8403 H       1  UNL1        0.0492
     46 H           2.3643   -3.7529    0.2586 H       1  UNL1        0.0809
     47 H           2.9698   -3.5405   -2.3310 H       1  UNL1        0.0639
     48 H           2.7925   -1.3146   -4.1343 H       1  UNL1        0.0625
     49 H           2.1365    1.0767   -4.2612 H       1  UNL1        0.0636
     50 H           1.0388    1.0083   -0.0687 H       1  UNL1        0.0657
     51 H           1.1896    3.1383   -1.3439 H       1  UNL1        0.1548
     52 H           0.5163    5.1713   -2.5203 H       1  UNL1        0.0362
     53 H          -0.1629    5.0606   -4.1730 H       1  UNL1        0.0362
     54 H          -1.9332    5.6461   -2.5417 H       1  UNL1        0.0318
     55 H          -2.2698    4.0692   -3.3077 H       1  UNL1        0.0318
     56 H          -0.8416    5.6854   -0.2081 H       1  UNL1        0.0620
     57 H          -2.4357    2.0707   -1.9397 H       1  UNL1        0.0620
     58 H          -2.4609    1.0231    0.2954 H       1  UNL1        0.0618
     59 H          -1.6602    2.2826    2.2741 H       1  UNL1        0.0618
     60 H          -0.8579    4.6150    2.0193 H       1  UNL1        0.0618
@<TRIPOS>BOND
     1     1     2   ar
     2     2     3   ar
     3     3     4   ar
     4     1     5   ar
     5     4     5   ar
     6     5     6    1
     7     6     7    2
     8     6     8   am
     9     2     9    1
    10     9    10    1
    11    10    11    1
    12     9    12    1
    13    12    13    1
    14    13    14    1
    15    14    15   ar
    16    15    16   ar
    17    16    17   ar
    18    14    18   ar
    19    17    18   ar
    20    17    19   ar
    21    19    20   ar
    22    20    21   ar
    23    18    22   ar
    24    21    22   ar
    25    21    23    1
    26    23    24   am
    27    24    25    2
    28    24    26    1
    29    26    27    1
    30    27    29    1
    31    28    29   ar
    32    29    30   ar
    33    30    31   ar
    34    31    32   ar
    35    28    33   ar
    36    32    33   ar
    37     1    34    1
    38     3    35    1
    39     8    36    1
    40     8    37    1
    41     9    38    1
    42    10    39    1
    43    10    40    1
    44    11    41    1
    45    12    42    1
    46    12    43    1
    47    13    44    1
    48    13    45    1
    49    15    46    1
    50    16    47    1
    51    19    48    1
    52    20    49    1
    53    22    50    1
    54    23    51    1
    55    26    52    1
    56    26    53    1
    57    27    54    1
    58    27    55    1
    59    28    56    1
    60    30    57    1
    61    31    58    1
    62    32    59    1
    63    33    60    1
