7JG0_GAR_A_1101
     RDKit          3D

 18 18  0  0  0  0  0  0  0  0999 V2000
  -26.2630   14.7930   35.4914 C   0  0  1  0  0  0  0  0  0  0  0  0
  -26.1000   16.1419   35.0698 O   0  0  0  0  0  0  0  0  0  0  0  0
  -27.7680   14.5186   35.6325 C   0  0  1  0  0  0  0  0  0  0  0  0
  -28.4871   15.6269   36.1214 O   0  0  0  0  0  0  0  0  0  0  0  0
  -28.1166   14.1135   34.1888 C   0  0  1  0  0  0  0  0  0  0  0  0
  -26.9748   13.3740   33.7102 O   0  0  0  0  0  0  0  0  0  0  0  0
  -25.7993   13.8313   34.3932 C   0  0  2  0  0  0  0  0  0  0  0  0
  -25.0608   12.6354   34.9537 C   0  0  0  0  0  0  0  0  0  0  0  0
  -23.6604   12.8170   34.7687 O   0  0  0  0  0  0  0  0  0  0  0  0
  -29.2966   13.3115   34.1074 N   0  0  0  0  0  0  0  0  0  0  0  0
  -30.2022   13.4844   33.1423 C   0  0  0  0  0  0  0  0  0  0  0  0
  -31.1241   14.2977   33.2028 O   0  0  0  0  0  0  0  0  0  0  0  0
  -29.9744   12.5843   31.9468 C   0  0  0  0  0  0  0  0  0  0  0  0
  -30.5894   13.1084   30.7445 N   0  0  0  0  0  0  0  0  0  0  0  0
  -22.6549   11.7933   35.4796 P   0  0  1  0  0  0  0  0  0  0  0  0
  -23.4833   11.1924   36.6108 O   0  0  0  0  0  0  0  0  0  0  0  0
  -22.2889   10.7661   34.4289 O   0  0  0  0  0  0  0  0  0  0  0  0
  -21.5096   12.6784   35.9202 O   0  0  0  0  0  0  0  0  0  0  0  0
  1  2  1  6
  1  3  1  0
  3  4  1  6
  3  5  1  0
  5  6  1  0
  1  7  1  0
  6  7  1  0
  7  8  1  1
  8  9  1  0
  5 10  1  1
 10 11  1  0
 11 12  2  0
 11 13  1  0
 13 14  1  0
  9 15  1  0
 15 16  2  0
 15 17  1  6
 15 18  1  0
M  CHG  2  17  -1  18  -1
M  END
