7O1T_5X8_A_407
     RDKit          3D

 43 45  0  0  0  0  0  0  0  0999 V2000
   -3.0898    4.2540   -2.6911 N   0  0  0  0  0  0  0  0  0  0  0  0
   -2.0785    5.3199   -0.8467 C   0  0  0  0  0  0  0  0  0  0  0  0
   -1.3467    6.8475    0.4210 C   0  0  0  0  0  0  0  0  0  0  0  0
   -3.3982    5.4790   -3.2271 C   0  0  0  0  0  0  0  0  0  0  0  0
   -2.4277    4.1438   -1.5004 C   0  0  0  0  0  0  0  0  0  0  0  0
   -3.0476    6.6292   -2.5765 N   0  0  0  0  0  0  0  0  0  0  0  0
   -2.3964    6.5154   -1.3935 C   0  0  0  0  0  0  0  0  0  0  0  0
   -1.9779    5.7064   -1.2060 O   0  0  0  0  0  0  0  0  0  0  0  0
   -1.4717    5.6593    0.0904 C   0  0  0  0  0  0  0  0  0  0  0  0
   -0.7555    4.6859    0.4478 O   0  0  0  0  0  0  0  0  0  0  0  0
   -1.7362    6.7876    1.0505 C   0  0  2  0  0  0  0  0  0  0  0  0
   -3.1758    6.9645    1.2472 N   0  0  0  0  0  0  0  0  0  0  0  0
   -1.0865    8.0917    0.5538 C   0  0  0  0  0  0  0  0  0  0  0  0
    0.0707    8.8088    1.7844 S   0  0  0  0  0  0  0  0  0  0  0  0
   -0.6100   10.5062    1.7404 C   0  0  0  0  0  0  0  0  0  0  0  0
   -1.4578   10.7224    0.4785 C   0  0  2  0  0  0  0  0  0  0  0  0
   -2.3414    9.6292    0.3307 O   0  0  0  0  0  0  0  0  0  0  0  0
   -0.5976   10.8437   -0.7837 C   0  0  2  0  0  0  0  0  0  0  0  0
   -1.1961   11.7598   -1.6676 O   0  0  0  0  0  0  0  0  0  0  0  0
   -0.6446    9.4450   -1.3411 C   0  0  2  0  0  0  0  0  0  0  0  0
   -0.5611    9.4370   -2.7428 O   0  0  0  0  0  0  0  0  0  0  0  0
   -1.9969    8.9430   -0.8536 C   0  0  1  0  0  0  0  0  0  0  0  0
   -1.9545    7.5014   -0.6040 N   0  0  0  0  0  4  0  0  0  0  0  0
   -1.4086    5.4916    0.3087 N   0  0  0  0  0  0  0  0  0  0  0  0
   -2.1084    2.8605   -0.9625 N   0  0  0  0  0  0  0  0  0  0  0  0
   -0.8485    7.3492    1.2402 H   0  0  0  0  0  0  0  0  0  0  0  0
   -3.9207    5.5351   -4.1721 H   0  0  0  0  0  0  0  0  0  0  0  0
   -1.7904    4.9599   -1.8646 H   0  0  0  0  0  0  0  0  0  0  0  0
   -1.2724    6.5264    2.0295 H   0  0  0  0  0  0  0  0  0  0  0  0
   -3.3170    7.6683    2.0082 H   0  0  0  0  0  0  0  0  0  0  0  0
   -3.5711    6.0676    1.6136 H   0  0  0  0  0  0  0  0  0  0  0  0
   -1.8837    8.8410    0.3600 H   0  0  0  0  0  0  0  0  0  0  0  0
   -0.5779    7.9116   -0.4175 H   0  0  0  0  0  0  0  0  0  0  0  0
    0.2400   11.2217    1.7362 H   0  0  0  0  0  0  0  0  0  0  0  0
   -1.2255   10.7030    2.6424 H   0  0  0  0  0  0  0  0  0  0  0  0
   -2.0637   11.6450    0.6205 H   0  0  0  0  0  0  0  0  0  0  0  0
    0.4520   11.1485   -0.5578 H   0  0  0  0  0  0  0  0  0  0  0  0
   -0.4889   12.0527   -2.2999 H   0  0  0  0  0  0  0  0  0  0  0  0
    0.1880    8.8498   -0.8955 H   0  0  0  0  0  0  0  0  0  0  0  0
   -0.4191    8.4917   -3.0095 H   0  0  0  0  0  0  0  0  0  0  0  0
   -2.7791    9.1651   -1.6146 H   0  0  0  0  0  0  0  0  0  0  0  0
   -1.6014    2.7691   -0.0541 H   0  0  0  0  0  0  0  0  0  0  0  0
   -2.3812    1.9937   -1.4766 H   0  0  0  0  0  0  0  0  0  0  0  0
  1  4  4  0
  1  5  4  0
  2  5  4  0
  4  6  4  0
  6  7  4  0
  2  7  4  0
  8  9  1  0
  9 10  2  0
  9 11  1  0
 11 12  1  0
 11 13  1  0
 13 14  1  0
 14 15  1  0
 16 15  1  0
 16 17  1  0
 16 18  1  0
 18 19  1  0
 18 20  1  0
 20 21  1  0
 17 22  1  0
 20 22  1  0
 22 23  1  0
  7 23  4  0
  3 23  4  0
  2 24  4  0
  3 24  4  0
  5 25  1  0
  3 26  1  0
  4 27  1  0
  8 28  1  0
 11 29  1  6
 12 30  1  0
 12 31  1  0
 13 32  1  0
 13 33  1  0
 15 34  1  0
 15 35  1  0
 16 36  1  6
 18 37  1  6
 19 38  1  0
 20 39  1  6
 21 40  1  0
 22 41  1  1
 25 42  1  0
 25 43  1  0
M  CHG  1  23   1
M  END
