
     RDKit          3D

 23 24  0  0  0  0  0  0  0  0999 V2000
   59.1248   58.1467   19.4006 C   0  0  0  0  0  0  0  0  0  0  0  0
   54.8332   56.3292   16.2367 C   0  0  0  0  0  0  0  0  0  0  0  0
   53.6390   55.7153   16.1086 C   0  0  0  0  0  0  0  0  0  0  0  0
   52.3586   56.4811   16.3933 C   0  0  0  0  0  0  0  0  0  0  0  0
   51.5214   55.8813   17.5193 C   0  0  0  0  0  0  0  0  0  0  0  0
   51.9136   56.4042   18.8715 C   0  0  0  0  0  0  0  0  0  0  0  0
   58.6872   53.3773   19.7709 C   0  0  0  0  0  0  0  0  0  0  0  0
   55.5962   53.2084   18.1399 C   0  0  0  0  0  0  0  0  0  0  0  0
   53.4518   54.2704   15.7290 C   0  0  0  0  0  0  0  0  0  0  0  0
   59.7302   56.2222   20.5498 C   0  0  0  0  0  0  0  0  0  0  0  0
   58.8051   55.8671   19.4517 C   0  0  0  0  0  0  0  0  0  0  0  0
   58.3035   54.6353   19.0492 C   0  0  0  0  0  0  0  0  0  0  0  0
   57.3985   54.6331   17.9638 C   0  0  0  0  0  0  0  0  0  0  0  0
   57.0714   55.8152   17.2442 C   0  0  0  0  0  0  0  0  0  0  0  0
   57.6142   57.0304   17.6807 C   0  0  0  0  0  0  0  0  0  0  0  0
   58.4576   57.0194   18.7777 C   0  0  0  0  0  0  0  0  0  0  0  0
   56.2098   55.7633   15.9992 C   0  0  0  0  0  0  0  0  0  0  0  0
   59.0242   59.3032   19.0382 O   0  0  0  0  0  0  0  0  0  0  0  0
   59.8581   57.6565   20.4395 O   0  0  0  0  0  0  0  0  0  0  0  0
   56.8747   53.4332   17.5397 O   0  0  0  0  0  0  0  0  0  0  0  0
   57.3080   58.1926   17.0318 O   0  0  0  0  0  0  0  0  0  0  0  0
   52.6972   55.5548   19.5628 O   0  0  0  0  0  0  0  0  0  0  0  0
   51.5481   57.4556   19.3714 O   0  0  0  0  0  0  0  0  0  0  0  0
  2  3  2  0
  3  4  1  0
  4  5  1  0
  5  6  1  0
  3  9  1  0
 10 11  1  0
  7 12  1  0
 11 12  4  0
 12 13  4  0
 13 14  4  0
 14 15  4  0
  1 16  1  0
 11 16  4  0
 15 16  4  0
  2 17  1  0
 14 17  1  0
  1 18  2  0
  1 19  1  0
 10 19  1  0
  8 20  1  0
 13 20  1  0
 15 21  1  0
  6 22  1  0
  6 23  2  0
M  END
