7MZS_GLA_A_301
     RDKit          3D

 12 12  0  0  0  0  0  0  0  0999 V2000
  -21.8529  -36.9086   21.0541 C   0  0  1  0  0  0  0  0  0  0  0  0
  -22.7012  -38.1136   20.6581 C   0  0  1  0  0  0  0  0  0  0  0  0
  -23.8319  -37.7040   19.7636 C   0  0  2  0  0  0  0  0  0  0  0  0
  -23.5470  -36.4707   18.9446 C   0  0  2  0  0  0  0  0  0  0  0  0
  -22.8688  -35.3707   19.7266 C   0  0  1  0  0  0  0  0  0  0  0  0
  -23.7537  -34.1446   19.6946 C   0  0  0  0  0  0  0  0  0  0  0  0
  -20.7596  -36.8510   20.2042 O   0  0  0  0  0  0  0  0  0  0  0  0
  -21.9349  -39.0873   20.0336 O   0  0  0  0  0  0  0  0  0  0  0  0
  -24.9764  -37.4444   20.5019 O   0  0  0  0  0  0  0  0  0  0  0  0
  -24.7924  -36.0340   18.4546 O   0  0  0  0  0  0  0  0  0  0  0  0
  -22.6261  -35.7573   21.0444 O   0  0  0  0  0  0  0  0  0  0  0  0
  -23.0815  -32.9867   20.0075 O   0  0  0  0  0  0  0  0  0  0  0  0
  1  2  1  0
  2  3  1  0
  3  4  1  0
  4  5  1  0
  5  6  1  1
  1  7  1  6
  2  8  1  6
  3  9  1  1
  4 10  1  1
  1 11  1  0
  5 11  1  0
  6 12  1  0
M  END
$$$$
