7TS6_KMI_B_803
     RDKit          3D

 17 18  0  0  0  0  0  0  0  0999 V2000
  -14.2752  -27.6680  -21.3348 C   0  0  0  0  0  0  0  0  0  0  0  0
  -13.5284  -29.0057  -23.2164 C   0  0  0  0  0  0  0  0  0  0  0  0
  -14.5316  -28.5204  -22.4031 C   0  0  0  0  0  0  0  0  0  0  0  0
  -12.9698  -27.2982  -21.0844 C   0  0  0  0  0  0  0  0  0  0  0  0
  -13.2097  -30.9946  -26.2929 C   0  0  0  0  0  0  0  0  0  0  0  0
  -14.4475  -31.5713  -26.4674 C   0  0  0  0  0  0  0  0  0  0  0  0
  -15.4191  -31.2844  -25.5244 C   0  0  0  0  0  0  0  0  0  0  0  0
  -15.1584  -30.4475  -24.4428 C   0  0  0  0  0  0  0  0  0  0  0  0
  -13.9054  -29.8934  -24.3095 C   0  0  0  0  0  0  0  0  0  0  0  0
  -16.7707  -31.8840  -25.6710 C   0  0  0  0  0  0  0  0  0  0  0  0
  -11.9502  -27.7861  -21.9043 C   0  0  0  0  0  0  0  0  0  0  0  0
  -12.2282  -28.6295  -22.9569 C   0  0  0  0  0  0  0  0  0  0  0  0
  -10.5797  -27.3531  -21.5831 C   0  0  0  0  0  0  0  0  0  0  0  0
   -8.2585  -27.6050  -21.6678 C   0  0  0  0  0  0  0  0  0  0  0  0
  -12.9726  -30.1820  -25.2342 N   0  0  0  0  0  0  0  0  0  0  0  0
  -12.1452  -31.2333  -27.2156 N   0  0  0  0  0  0  0  0  0  0  0  0
   -9.5287  -28.1183  -22.1483 N   0  0  0  0  0  0  0  0  0  0  0  0
  2  3  1  0
  1  3  2  0
  1  4  1  0
  5  6  2  0
  6  7  1  0
  7  8  2  0
  8  9  1  0
  2  9  1  0
  7 10  1  0
  4 11  2  0
  2 12  2  0
 11 12  1  0
 11 13  1  0
  9 15  2  0
  5 15  1  0
  5 16  1  0
 13 17  1  0
 14 17  1  0
M  END
$$$$
