5SIS_JSM_A_803
     RDKit          3D

 32 35  0  0  0  0  0  0  0  0999 V2000
   37.4302  102.9841   62.8797 C   0  0  0  0  0  0  0  0  0  0  0  0
   36.4333  105.1269   63.6884 C   0  0  0  0  0  0  0  0  0  0  0  0
   35.9409  106.3494   63.2684 C   0  0  0  0  0  0  0  0  0  0  0  0
   38.3391  101.2089   61.2750 C   0  0  0  0  0  0  0  0  0  0  0  0
   37.5266  110.9334   58.9968 C   0  0  0  0  0  0  0  0  0  0  0  0
   30.7306  108.0058   59.2365 C   0  0  0  0  0  0  0  0  0  0  0  0
   31.6158  110.0384   58.0135 C   0  0  0  0  0  0  0  0  0  0  0  0
   38.6129  100.2442   62.2192 C   0  0  0  0  0  0  0  0  0  0  0  0
   38.6320  100.9549   59.9443 C   0  0  0  0  0  0  0  0  0  0  0  0
   30.4732  108.1295   60.7039 C   0  0  0  0  0  0  0  0  0  0  0  0
   34.2723  109.4054   58.8799 C   0  0  0  0  0  0  0  0  0  0  0  0
   35.5354  109.4579   59.4138 C   0  0  0  0  0  0  0  0  0  0  0  0
   36.8841  104.5125   61.4575 C   0  0  0  0  0  0  0  0  0  0  0  0
   37.3935  103.4742   60.7730 N   0  0  0  0  0  0  0  0  0  0  0  0
   36.1712  108.6458   60.4386 C   0  0  0  0  0  0  0  0  0  0  0  0
   36.9013  104.2164   62.7891 N   0  0  0  0  0  0  0  0  0  0  0  0
   33.2045  108.4832   59.2164 C   0  0  0  0  0  0  0  0  0  0  0  0
   37.7497  102.4909   61.6316 C   0  0  0  0  0  0  0  0  0  0  0  0
   36.3988  105.7233   61.0112 C   0  0  0  0  0  0  0  0  0  0  0  0
   36.1478  110.4764   58.7780 N   0  0  0  0  0  0  0  0  0  0  0  0
   35.3198  111.0260   57.9020 N   0  0  0  0  0  0  0  0  0  0  0  0
   34.1171  110.4028   57.9103 C   0  0  0  0  0  0  0  0  0  0  0  0
   35.9279  106.6404   61.9205 C   0  0  0  0  0  0  0  0  0  0  0  0
   35.4484  107.8769   61.3939 N   0  0  0  0  0  0  0  0  0  0  0  0
   31.8681  108.8500   58.8235 N   0  0  0  0  0  0  0  0  0  0  0  0
   37.4286  108.5886   60.5252 O   0  0  0  0  0  0  0  0  0  0  0  0
   33.4039  107.3871   59.8324 O   0  0  0  0  0  0  0  0  0  0  0  0
   29.2291  107.4974   61.0714 N   0  0  0  0  0  0  0  0  0  0  0  0
   29.3668  106.7212   62.2735 C   0  0  0  0  0  0  0  0  0  0  0  0
   39.1925   99.7547   59.5479 C   0  0  0  0  0  0  0  0  0  0  0  0
   39.1748   99.0292   61.8574 C   0  0  0  0  0  0  0  0  0  0  0  0
   39.4570   98.8009   60.5267 C   0  0  0  0  0  0  0  0  0  0  0  0
  2  3  2  0
  4  8  2  0
  4  9  1  0
  6 10  1  0
 11 12  2  0
 13 14  2  0
 12 15  1  0
 13 16  1  0
  1 16  1  0
  2 16  1  0
 11 17  1  0
 14 18  1  0
  1 18  2  0
  4 18  1  0
 13 19  1  0
 12 20  1  0
  5 20  1  0
 20 21  1  0
 11 22  1  0
 21 22  2  0
 19 23  2  0
  3 23  1  0
 15 24  1  0
 23 24  1  0
 17 25  1  0
  7 25  1  0
  6 25  1  0
 15 26  2  0
 17 27  2  0
 10 28  1  0
 28 29  1  0
  9 30  2  0
  8 31  1  0
 30 32  1  0
 31 32  2  0
M  END
$$$$
