7AA0_R6B_BBB_201
     RDKit          3D

 53 55  0  0  0  0  0  0  0  0999 V2000
   -4.9118   -7.8365   32.8727 C   0  0  0  0  0  0  0  0  0  0  0  0
   -5.4859   -8.7634   30.6213 C   0  0  0  0  0  0  0  0  0  0  0  0
   -4.6656   -8.5647   34.0479 C   0  0  0  0  0  0  0  0  0  0  0  0
   -3.5801   -8.2066   34.8658 C   0  0  0  0  0  0  0  0  0  0  0  0
   -6.7285  -10.9779   35.9864 C   0  0  0  0  0  0  0  0  0  0  0  0
   -6.0633   -8.1638   31.9166 C   0  0  1  0  0  0  0  0  0  0  0  0
   -7.0229   -9.1858   32.5454 C   0  0  0  0  0  0  0  0  0  0  0  0
   -6.2802  -10.2559   33.3032 C   0  0  0  0  0  0  0  0  0  0  0  0
   -5.4155  -10.2815   35.7052 C   0  0  2  0  0  0  0  0  0  0  0  0
   -5.0342   -9.3100   36.8008 C   0  0  0  0  0  0  0  0  0  0  0  0
   -6.8607   -6.8921   31.5775 C   0  0  0  0  0  0  0  0  0  0  0  0
   -5.4623   -9.6499   34.3552 N   0  0  0  0  0  0  0  0  0  0  0  0
   -4.0686   -6.7615   32.5599 C   0  0  0  0  0  0  0  0  0  0  0  0
   -2.7634   -7.1460   34.5250 C   0  0  0  0  0  0  0  0  0  0  0  0
   -3.0104   -6.3775   33.3885 C   0  0  0  0  0  0  0  0  0  0  0  0
   -2.1166   -5.2507   32.9901 C   0  0  0  0  0  0  0  0  0  0  0  0
   -1.7789   -5.0848   31.6528 C   0  0  0  0  0  0  0  0  0  0  0  0
   -0.9049   -4.0967   31.2411 C   0  0  0  0  0  0  0  0  0  0  0  0
   -0.3068   -3.2266   32.1436 C   0  0  0  0  0  0  0  0  0  0  0  0
   -0.6164   -3.4068   33.4927 C   0  0  0  0  0  0  0  0  0  0  0  0
   -1.4958   -4.4004   33.9057 C   0  0  0  0  0  0  0  0  0  0  0  0
    0.6076   -2.1927   31.6394 C   0  0  0  0  0  0  0  0  0  0  0  0
    1.4890   -2.3023   30.6891 C   0  0  0  0  0  0  0  0  0  0  0  0
    2.3191   -1.1597   30.1694 C   0  0  0  0  0  0  0  0  0  0  0  0
    1.7746   -0.2338   29.4678 O   0  0  0  0  0  0  0  0  0  0  0  0
    3.4801   -1.1603   30.4870 O   0  0  0  0  0  0  0  0  0  0  0  0
   -4.9308   -9.6481   30.8543 H   0  0  0  0  0  0  0  0  0  0  0  0
   -4.8398   -8.0495   30.1548 H   0  0  0  0  0  0  0  0  0  0  0  0
   -6.2859   -9.0096   29.9547 H   0  0  0  0  0  0  0  0  0  0  0  0
   -3.3916   -8.7407   35.7285 H   0  0  0  0  0  0  0  0  0  0  0  0
   -6.6921  -11.4301   36.9554 H   0  0  0  0  0  0  0  0  0  0  0  0
   -6.8976  -11.7326   35.2469 H   0  0  0  0  0  0  0  0  0  0  0  0
   -7.5248  -10.2638   35.9557 H   0  0  0  0  0  0  0  0  0  0  0  0
   -7.5967   -9.6461   31.7684 H   0  0  0  0  0  0  0  0  0  0  0  0
   -7.6563   -8.6678   33.2349 H   0  0  0  0  0  0  0  0  0  0  0  0
   -5.6476  -10.7935   32.6282 H   0  0  0  0  0  0  0  0  0  0  0  0
   -6.9868  -10.9242   33.7495 H   0  0  0  0  0  0  0  0  0  0  0  0
   -4.6338  -11.0122   35.6997 H   0  0  0  0  0  0  0  0  0  0  0  0
   -5.7752   -8.5410   36.8693 H   0  0  0  0  0  0  0  0  0  0  0  0
   -4.0849   -8.8715   36.5741 H   0  0  0  0  0  0  0  0  0  0  0  0
   -4.9731   -9.8305   37.7337 H   0  0  0  0  0  0  0  0  0  0  0  0
   -6.2072   -6.1680   31.1378 H   0  0  0  0  0  0  0  0  0  0  0  0
   -7.2883   -6.4901   32.4721 H   0  0  0  0  0  0  0  0  0  0  0  0
   -7.6412   -7.1341   30.8867 H   0  0  0  0  0  0  0  0  0  0  0  0
   -4.2347   -6.2354   31.6878 H   0  0  0  0  0  0  0  0  0  0  0  0
   -1.9544   -6.9180   35.1237 H   0  0  0  0  0  0  0  0  0  0  0  0
   -2.1915   -5.7161   30.9484 H   0  0  0  0  0  0  0  0  0  0  0  0
   -0.6908   -4.0027   30.2359 H   0  0  0  0  0  0  0  0  0  0  0  0
   -0.1836   -2.7897   34.1977 H   0  0  0  0  0  0  0  0  0  0  0  0
   -1.6942   -4.5119   34.9123 H   0  0  0  0  0  0  0  0  0  0  0  0
    0.5426   -1.2684   32.0939 H   0  0  0  0  0  0  0  0  0  0  0  0
    1.6279   -3.2324   30.2642 H   0  0  0  0  0  0  0  0  0  0  0  0
    0.8647   -0.2849   29.2497 H   0  0  0  0  0  0  0  0  0  0  0  0
  1  3  4  0
  3  4  4  0
  1  6  1  0
  6  2  1  6
  6  7  1  0
  7  8  1  0
  5  9  1  0
  9 10  1  0
  6 11  1  0
  8 12  1  0
  9 12  1  0
  3 12  1  0
  1 13  4  0
  4 14  4  0
 13 15  4  0
 14 15  4  0
 15 16  1  0
 16 17  4  0
 17 18  4  0
 18 19  4  0
 19 20  4  0
 16 21  4  0
 20 21  4  0
 19 22  1  0
 22 23  2  3
 23 24  1  0
 24 25  1  0
 24 26  2  0
  2 27  1  0
  2 28  1  0
  2 29  1  0
  4 30  1  0
  5 31  1  0
  5 32  1  0
  5 33  1  0
  7 34  1  0
  7 35  1  0
  8 36  1  0
  8 37  1  0
  9 38  1  6
 10 39  1  0
 10 40  1  0
 10 41  1  0
 11 42  1  0
 11 43  1  0
 11 44  1  0
 13 45  1  0
 14 46  1  0
 17 47  1  0
 18 48  1  0
 20 49  1  0
 21 50  1  0
 22 51  1  0
 23 52  1  0
 25 53  1  0
M  END
