7UJ4_OQ4_B_601
     RDKit          3D

 44 48  0  0  0  0  0  0  0  0999 V2000
  -42.3493  -24.6829   24.7368 C   0  0  0  0  0  0  0  0  0  0  0  0
  -43.7316  -24.3385   24.2254 C   0  0  1  0  0  0  0  0  0  0  0  0
  -43.8750  -24.8285   22.8104 C   0  0  0  0  0  0  0  0  0  0  0  0
  -44.7919  -24.8422   25.0803 N   0  0  0  0  0  0  0  0  0  0  0  0
  -44.9319  -26.2830   25.1658 C   0  0  0  0  0  0  0  0  0  0  0  0
  -46.1880  -26.8110   24.5448 C   0  0  0  0  0  0  0  0  0  0  0  0
  -45.6620  -23.9500   25.8127 C   0  0  0  0  0  0  0  0  0  0  0  0
  -45.3323  -22.7601   25.8388 O   0  0  0  0  0  0  0  0  0  0  0  0
  -46.8284  -24.5371   26.4390 C   0  0  0  0  0  0  0  0  0  0  0  0
  -46.6271  -25.1034   27.7025 C   0  0  0  0  0  0  0  0  0  0  0  0
  -47.6491  -25.6826   28.4185 C   0  0  0  0  0  0  0  0  0  0  0  0
  -47.4430  -26.2290   29.6432 F   0  0  0  0  0  0  0  0  0  0  0  0
  -48.9030  -25.6910   27.8479 C   0  0  0  0  0  0  0  0  0  0  0  0
  -49.1142  -25.1372   26.6053 C   0  0  0  0  0  0  0  0  0  0  0  0
  -48.0805  -24.5454   25.8679 C   0  0  0  0  0  0  0  0  0  0  0  0
  -48.4027  -24.0283   24.6557 O   0  0  0  0  0  0  0  0  0  0  0  0
  -49.4842  -24.1852   23.8624 C   0  0  0  0  0  0  0  0  0  0  0  0
  -50.3554  -25.2467   23.8373 C   0  0  0  0  0  0  0  0  0  0  0  0
  -51.4142  -25.3300   23.0123 N   0  0  0  0  0  0  0  0  0  0  0  0
  -51.6695  -24.3429   22.1510 C   0  0  0  0  0  0  0  0  0  0  0  0
  -50.8476  -23.2773   22.1326 N   0  0  0  0  0  0  0  0  0  0  0  0
  -49.7680  -23.1561   22.9499 C   0  0  0  0  0  0  0  0  0  0  0  0
  -48.9255  -22.0129   22.9084 N   0  0  0  0  0  0  0  0  0  0  0  0
  -47.7344  -21.4975   23.5664 C   0  0  0  0  0  0  0  0  0  0  0  0
  -48.9412  -20.7838   22.0977 C   0  0  0  0  0  0  0  0  0  0  0  0
  -48.0573  -20.0948   23.1124 C   0  0  1  0  0  0  0  0  0  0  0  0
  -48.8772  -19.2605   24.0595 C   0  0  0  0  0  0  0  0  0  0  0  0
  -48.6813  -17.7838   23.8541 C   0  0  0  0  0  0  0  0  0  0  0  0
  -46.9530  -19.2924   22.5178 C   0  0  0  0  0  0  0  0  0  0  0  0
  -47.5433  -18.1660   21.7382 C   0  0  0  0  0  0  0  0  0  0  0  0
  -48.4599  -17.4006   22.4992 N   0  0  0  0  0  0  0  0  0  0  0  0
  -49.6704  -17.0542   21.7878 C   0  0  0  0  0  0  0  0  0  0  0  0
  -49.4812  -15.6572   21.2305 C   0  0  1  0  0  0  0  0  0  0  0  0
  -50.6563  -15.2880   20.3512 C   0  0  0  0  0  0  0  0  0  0  0  0
  -50.7703  -13.7853   20.1834 C   0  0  0  0  0  0  0  0  0  0  0  0
  -49.2790  -14.6974   22.3687 C   0  0  0  0  0  0  0  0  0  0  0  0
  -50.6023  -14.0187   22.6583 C   0  0  0  0  0  0  0  0  0  0  0  0
  -50.9186  -13.0963   21.5252 C   0  0  1  0  0  0  0  0  0  0  0  0
  -50.0240  -11.9566   21.5215 N   0  0  0  0  0  0  0  0  0  0  0  0
  -50.5631  -10.7763   20.3843 S   0  0  2  0  0  6  0  0  0  0  0  0
  -52.0329  -10.5537   20.5533 O   0  0  0  0  0  0  0  0  0  0  0  0
  -50.3122  -11.2523   18.9968 O   0  0  0  0  0  0  0  0  0  0  0  0
  -49.7090   -9.2399   20.7026 C   0  0  0  0  0  0  0  0  0  0  0  0
  -50.5994   -8.3018   21.4740 C   0  0  0  0  0  0  0  0  0  0  0  0
  1  2  1  6
  3  2  1  6
  2  4  1  1
  5  4  1  6
  6  5  1  6
  4  7  1  0
  7  8  2  0
  7  9  1  0
  9 10  2  0
 10 11  1  0
 11 12  1  0
 11 13  2  0
 13 14  1  0
  9 15  1  0
 14 15  2  0
 15 16  1  0
 16 17  1  0
 17 18  2  0
 18 19  1  0
 19 20  2  0
 20 21  1  0
 21 22  2  0
 17 22  1  0
 22 23  1  0
 24 23  1  6
 25 23  1  1
 26 24  1  1
 25 26  1  0
 26 27  1  0
 27 28  1  6
 26 29  1  0
 29 30  1  1
 30 31  1  1
 28 31  1  6
 32 31  1  1
 33 32  1  1
 33 34  1  0
 34 35  1  6
 33 36  1  0
 36 37  1  1
 37 38  1  6
 35 38  1  6
 38 39  1  6
 40 39  1  1
 40 41  2  0
 40 42  2  0
 40 43  1  0
 43 44  1  1
M  END
$$$$
