
     RDKit          3D

 25 24  0  0  0  0  0  0  0  0999 V2000
  -19.5574    0.1943  -17.8276 C   0  0  0  0  0  0  0  0  0  0  0  0
  -20.7411    0.3865  -18.5766 O   0  0  0  0  0  0  0  0  0  0  0  0
  -19.3849   -1.2677  -17.5218 C   0  0  0  0  0  0  0  0  0  0  0  0
  -20.4843   -2.0326  -17.7172 F   0  0  0  0  0  0  0  0  0  0  0  0
  -18.2440   -1.8638  -17.1113 C   0  0  0  0  0  0  0  0  0  0  0  0
  -16.9642   -1.0879  -16.8950 C   0  0  0  0  0  0  0  0  0  0  0  0
  -18.0691   -3.3514  -16.8268 C   0  0  0  0  0  0  0  0  0  0  0  0
  -17.3412   -4.2698  -17.8212 C   0  0  0  0  0  0  0  0  0  0  0  0
  -18.2591   -4.8545  -18.8659 C   0  0  0  0  0  0  0  0  0  0  0  0
  -18.8141   -4.2279  -19.9241 C   0  0  0  0  0  0  0  0  0  0  0  0
  -18.5481   -2.7829  -20.2745 C   0  0  0  0  0  0  0  0  0  0  0  0
  -19.7819   -4.8930  -20.8986 C   0  0  0  0  0  0  0  0  0  0  0  0
  -19.5588   -6.3575  -21.3224 C   0  0  0  0  0  0  0  0  0  0  0  0
  -19.5837   -7.3190  -20.1610 C   0  0  0  0  0  0  0  0  0  0  0  0
  -20.4318   -7.3338  -19.1144 C   0  0  0  0  0  0  0  0  0  0  0  0
  -20.2810   -8.3702  -18.0288 C   0  0  0  0  0  0  0  0  0  0  0  0
  -21.5738   -6.3766  -18.9068 C   0  0  0  0  0  0  0  0  0  0  0  0
  -20.9139    1.8110  -19.2871 P   0  0  0  0  0  5  0  0  0  0  0  0
  -19.7505    2.2725  -20.0947 O   0  0  0  0  0  0  0  0  0  0  0  0
  -21.2804    2.7763  -18.0615 O   0  0  0  0  0  0  0  0  0  0  0  0
  -22.2949    1.6636  -20.0646 O   0  0  0  0  0  0  0  0  0  0  0  0
  -22.6445    2.6518  -21.2466 P   0  0  0  0  0  5  0  0  0  0  0  0
  -22.2831    1.9138  -22.6086 O   0  0  0  0  0  0  0  0  0  0  0  0
  -24.2412    2.6508  -21.3247 O   0  0  0  0  0  0  0  0  0  0  0  0
  -22.1151    4.0388  -21.0914 O   0  0  0  0  0  0  0  0  0  0  0  0
  1  2  1  0
  1  3  1  0
  3  4  1  0
  3  5  2  0
  5  6  1  0
  5  7  1  0
  7  8  1  0
  8  9  1  0
  9 10  2  0
 10 11  1  0
 10 12  1  0
 12 13  1  0
 13 14  1  0
 14 15  2  3
 15 16  1  0
 15 17  1  0
  2 18  1  0
 18 19  2  0
 18 20  1  0
 18 21  1  0
 21 22  1  0
 22 23  1  0
 22 24  1  0
 22 25  2  0
M  END
