7JG0_GAR_A_1101
     RDKit          3D

 31 31  0  0  0  0  0  0  0  0999 V2000
  -24.9301   13.9649   32.3020 C   0  0  1  0  0  0  0  0  0  0  0  0
  -23.7889   14.7803   32.1594 O   0  0  0  0  0  0  0  0  0  0  0  0
  -25.8745   14.0949   31.1282 C   0  0  1  0  0  0  0  0  0  0  0  0
  -25.7529   15.3298   30.4714 O   0  0  0  0  0  0  0  0  0  0  0  0
  -25.4366   12.9491   30.2261 C   0  0  1  0  0  0  0  0  0  0  0  0
  -24.9289   11.9128   31.0372 O   0  0  0  0  0  0  0  0  0  0  0  0
  -24.5569   12.4731   32.2810 C   0  0  2  0  0  0  0  0  0  0  0  0
  -25.2383   11.6894   33.4103 C   0  0  2  0  0  0  0  0  0  0  0  0
  -24.7925   10.3524   33.3995 O   0  0  0  0  0  0  0  0  0  0  0  0
  -26.5489   12.4462   29.4163 N   0  0  0  0  0  0  0  0  0  0  0  0
  -26.6624   11.0592   29.0706 C   0  0  0  0  0  0  0  0  0  0  0  0
  -26.1342   10.6202   28.0130 O   0  0  0  0  0  0  0  0  0  0  0  0
  -27.3767   10.1142   29.9864 C   0  0  1  0  0  0  0  0  0  0  0  0
  -27.2067   10.5418   31.3703 N   0  0  0  0  0  0  0  0  0  0  0  0
  -25.3757    9.5776   34.8015 P   0  0  2  0  0  5  0  0  0  0  0  0
  -24.2658    8.7864   35.4565 O   0  0  0  0  0  0  0  0  0  0  0  0
  -26.6560    8.5416   34.4128 O   0  0  0  0  0  1  0  0  0  0  0  0
  -25.9292   10.7513   35.8852 O   0  0  0  0  0  1  0  0  0  0  0  0
  -25.4491   14.2579   33.2418 H   0  0  0  0  0  0  0  0  0  0  0  0
  -23.9107   15.3488   31.3539 H   0  0  0  0  0  0  0  0  0  0  0  0
  -26.9222   13.9375   31.4788 H   0  0  0  0  0  0  0  0  0  0  0  0
  -25.4072   15.9717   31.1453 H   0  0  0  0  0  0  0  0  0  0  0  0
  -24.6245   13.2965   29.5474 H   0  0  0  0  0  0  0  0  0  0  0  0
  -23.4575   12.3549   32.4068 H   0  0  0  0  0  0  0  0  0  0  0  0
  -26.3415   11.7479   33.2639 H   0  0  0  0  0  0  0  0  0  0  0  0
  -24.9738   12.1806   34.3741 H   0  0  0  0  0  0  0  0  0  0  0  0
  -27.2759   13.1054   29.0555 H   0  0  0  0  0  0  0  0  0  0  0  0
  -28.4582   10.1079   29.7302 H   0  0  0  0  0  0  0  0  0  0  0  0
  -26.9845    9.0805   29.8555 H   0  0  0  0  0  0  0  0  0  0  0  0
  -26.1838   10.6678   31.5501 H   0  0  0  0  0  0  0  0  0  0  0  0
  -27.5222    9.7577   31.9861 H   0  0  0  0  0  0  0  0  0  0  0  0
  1  2  1  0
  1  3  1  0
  3  4  1  0
  3  5  1  0
  5  6  1  0
  1  7  1  0
  6  7  1  0
  7  8  1  0
  8  9  1  0
  5 10  1  0
 10 11  1  0
 11 12  2  0
 11 13  1  0
 13 14  1  0
  9 15  1  0
 15 16  2  0
 15 17  1  6
 15 18  1  0
  1 19  1  1
  2 20  1  0
  3 21  1  1
  4 22  1  0
  5 23  1  6
  7 24  1  1
  8 25  1  6
  8 26  1  0
 10 27  1  0
 13 28  1  6
 13 29  1  0
 14 30  1  0
 14 31  1  0
M  CHG  2  17  -1  18  -1
M  END
