7PK0_BYC_A_402
     RDKit          3D

 96 99  0  0  0  0  0  0  0  0999 V2000
  -13.6495   26.7004   -9.7476 N   0  0  0  0  0  0  0  0  0  0  0  0
   -8.8785   30.9437  -19.2032 O   0  0  0  0  0  0  0  0  0  0  0  0
   -8.8402   29.9005  -18.1089 P   0  0  2  0  0  5  0  0  0  0  0  0
  -10.6003   25.7360  -15.0120 C   0  0  0  0  0  0  0  0  0  0  0  0
   -9.9984   28.3550  -12.9731 C   0  0  1  0  0  0  0  0  0  0  0  0
   -9.5675   27.2030  -15.1700 S   0  0  0  0  0  0  0  0  0  0  0  0
  -12.4534   27.3062   -9.4525 C   0  0  0  0  0  0  0  0  0  0  0  0
   -7.5680   28.8281  -18.4216 O   0  0  0  0  0  0  0  0  0  0  0  0
  -10.0141   27.3974  -18.2661 P   0  0  1  0  0  5  0  0  0  0  0  0
  -11.8031   25.5568  -15.8516 C   0  0  0  0  0  0  0  0  0  0  0  0
   -9.2110   27.5186  -13.9686 C   0  0  2  0  0  0  0  0  0  0  0  0
   -8.6100   26.3739  -13.4039 O   0  0  0  0  0  0  0  0  0  0  0  0
  -10.5674   27.9658  -16.4932 C   0  0  2  0  0  0  0  0  0  0  0  0
  -11.6186   27.7240  -10.4543 N   0  0  0  0  0  0  0  0  0  0  0  0
  -10.3255   29.0687  -18.0821 O   0  0  0  0  0  0  0  0  0  0  0  0
  -11.7869   24.6509  -16.9256 C   0  0  0  0  0  0  0  0  0  0  0  0
   -8.2199   28.5057  -14.5355 C   0  0  2  0  0  0  0  0  0  0  0  0
   -7.0459   28.5339  -13.7400 O   0  0  0  0  0  0  0  0  0  0  0  0
   -5.7067   28.0124  -14.6626 P   0  0  1  0  0  5  0  0  0  0  0  0
   -9.9408   29.2648  -17.0220 C   0  0  1  0  0  0  0  0  0  0  0  0
  -12.0233   27.5303  -11.7330 C   0  0  0  0  0  0  0  0  0  0  0  0
   -9.5383   27.1200  -19.8664 O   0  0  0  0  0  0  0  0  0  0  0  0
  -12.9055   24.5212  -17.7546 C   0  0  0  0  0  0  0  0  0  0  0  0
   -8.9816   29.8340  -14.3897 C   0  0  2  0  0  0  0  0  0  0  0  0
  -10.0137   29.6888  -13.4317 O   0  0  0  0  0  0  0  0  0  0  0  0
  -10.2610   29.4554  -18.4368 N   0  0  0  0  0  0  0  0  0  0  0  0
  -10.2722   24.8502  -14.1776 O   0  0  0  0  0  0  0  0  0  0  0  0
   -8.9160   26.9198  -17.3417 O   0  0  0  0  0  0  0  0  0  0  0  0
  -14.0614   25.2677  -17.5009 C   0  0  0  0  0  0  0  0  0  0  0  0
   -9.6024   30.2791  -15.7180 C   0  0  1  0  0  0  0  0  0  0  0  0
   -8.5750   30.6597  -16.6053 O   0  0  0  0  0  0  0  0  0  0  0  0
  -13.1978   26.9380  -12.0475 C   0  0  0  0  0  0  0  0  0  0  0  0
  -11.3976   30.2085  -18.8812 C   0  0  0  0  0  0  0  0  0  0  0  0
  -11.3420   31.4712  -18.9338 O   0  0  0  0  0  0  0  0  0  0  0  0
  -14.0473   26.5019  -11.0394 C   0  0  0  0  0  0  0  0  0  0  0  0
  -15.2891   25.8532  -11.3284 N   0  0  0  0  0  0  0  0  0  0  0  0
  -11.4102   26.4658  -17.9430 O   0  0  0  0  0  0  0  0  0  0  0  0
  -14.0928   26.1619  -16.4270 C   0  0  0  0  0  0  0  0  0  0  0  0
  -12.6879   29.5007  -19.1939 C   0  0  1  0  0  0  0  0  0  0  0  0
  -13.3330   26.8381  -13.3836 N   0  0  0  0  0  0  0  0  0  0  0  0
   -5.9679   26.4272  -15.2045 O   0  0  0  0  0  0  0  0  0  0  0  0
  -12.9697   26.3070  -15.6076 C   0  0  0  0  0  0  0  0  0  0  0  0
  -13.9265   30.2776  -18.7402 C   0  0  2  0  0  0  0  0  0  0  0  0
  -12.1801   27.4008  -13.8446 C   0  0  0  0  0  0  0  0  0  0  0  0
   -5.5044   28.9242  -15.8528 O   0  0  0  0  0  0  0  0  0  0  0  0
  -15.1563   29.5618  -19.0807 N   0  0  0  0  0  0  0  0  0  0  0  0
  -11.3634   27.8442  -12.8525 N   0  0  0  0  0  0  0  0  0  0  0  0
   -4.3220   28.0534  -13.6889 O   0  0  0  0  0  0  0  0  0  0  0  0
  -15.1639   28.3130  -19.7845 C   0  0  0  0  0  0  0  0  0  0  0  0
  -15.3581   28.2899  -21.0310 O   0  0  0  0  0  0  0  0  0  0  0  0
  -15.0055   27.0170  -19.0229 C   0  0  2  0  0  0  0  0  0  0  0  0
  -15.3634   27.2194  -17.6755 O   0  0  0  0  0  0  0  0  0  0  0  0
  -13.5547   26.4204  -19.1158 C   0  0  1  0  0  0  0  0  0  0  0  0
  -12.5581   27.2336  -18.2396 C   0  0  1  0  0  0  0  0  0  0  0  0
  -13.5978   24.9575  -18.6114 C   0  0  2  0  0  0  0  0  0  0  0  0
  -13.0604   26.4074  -20.5815 C   0  0  1  0  0  0  0  0  0  0  0  0
   -9.5095   28.3505  -11.9760 H   0  0  0  0  0  0  0  0  0  0  0  0
  -12.1696   27.4442   -8.4172 H   0  0  0  0  0  0  0  0  0  0  0  0
   -7.7413   28.0499  -17.8334 H   0  0  0  0  0  0  0  0  0  0  0  0
   -9.8881   27.1844  -14.7842 H   0  0  0  0  0  0  0  0  0  0  0  0
   -7.7486   26.6384  -12.9876 H   0  0  0  0  0  0  0  0  0  0  0  0
  -11.5927   28.1604  -16.1061 H   0  0  0  0  0  0  0  0  0  0  0  0
  -10.6429   27.2291  -17.3240 H   0  0  0  0  0  0  0  0  0  0  0  0
  -10.8974   24.0759  -17.1497 H   0  0  0  0  0  0  0  0  0  0  0  0
   -8.0303   28.2175  -15.5963 H   0  0  0  0  0  0  0  0  0  0  0  0
  -10.2990   30.1462  -16.4443 H   0  0  0  0  0  0  0  0  0  0  0  0
   -8.8324   29.2067  -16.9044 H   0  0  0  0  0  0  0  0  0  0  0  0
  -10.3863   27.0596  -20.3704 H   0  0  0  0  0  0  0  0  0  0  0  0
  -12.8763   23.8451  -18.5992 H   0  0  0  0  0  0  0  0  0  0  0  0
   -8.2866   30.6311  -14.0431 H   0  0  0  0  0  0  0  0  0  0  0  0
   -9.6209   29.0360  -19.1484 H   0  0  0  0  0  0  0  0  0  0  0  0
  -14.9270   25.1663  -18.1404 H   0  0  0  0  0  0  0  0  0  0  0  0
  -10.2142   29.4341  -16.1115 H   0  0  0  0  0  0  0  0  0  0  0  0
  -10.2684   31.1486  -15.5231 H   0  0  0  0  0  0  0  0  0  0  0  0
  -15.3494   25.1243  -12.0738 H   0  0  0  0  0  0  0  0  0  0  0  0
  -16.1446   26.0853  -10.7781 H   0  0  0  0  0  0  0  0  0  0  0  0
  -14.9875   26.7437  -16.2299 H   0  0  0  0  0  0  0  0  0  0  0  0
  -12.7608   29.2952  -20.2836 H   0  0  0  0  0  0  0  0  0  0  0  0
  -12.6730   28.5169  -18.6744 H   0  0  0  0  0  0  0  0  0  0  0  0
   -6.6854   26.5116  -15.8823 H   0  0  0  0  0  0  0  0  0  0  0  0
  -13.0170   27.0102  -14.7866 H   0  0  0  0  0  0  0  0  0  0  0  0
  -13.9458   31.3132  -19.1469 H   0  0  0  0  0  0  0  0  0  0  0  0
  -13.8729   30.3803  -17.6352 H   0  0  0  0  0  0  0  0  0  0  0  0
  -11.9295   27.4525  -14.8947 H   0  0  0  0  0  0  0  0  0  0  0  0
  -16.0498   30.0875  -18.9891 H   0  0  0  0  0  0  0  0  0  0  0  0
   -3.9899   27.1225  -13.6966 H   0  0  0  0  0  0  0  0  0  0  0  0
  -15.7054   26.2785  -19.4825 H   0  0  0  0  0  0  0  0  0  0  0  0
  -14.6786   27.8139  -17.2678 H   0  0  0  0  0  0  0  0  0  0  0  0
  -13.0744   27.5342  -17.2996 H   0  0  0  0  0  0  0  0  0  0  0  0
  -12.2531   28.1484  -18.7932 H   0  0  0  0  0  0  0  0  0  0  0  0
  -13.7456   24.2604  -19.4641 H   0  0  0  0  0  0  0  0  0  0  0  0
  -14.4286   24.8089  -17.8890 H   0  0  0  0  0  0  0  0  0  0  0  0
  -12.6464   24.6788  -18.1044 H   0  0  0  0  0  0  0  0  0  0  0  0
  -13.4043   25.4923  -21.1111 H   0  0  0  0  0  0  0  0  0  0  0  0
  -13.4554   27.2799  -21.1446 H   0  0  0  0  0  0  0  0  0  0  0  0
  -11.9512   26.4551  -20.6259 H   0  0  0  0  0  0  0  0  0  0  0  0
  2  3  2  0
  4  6  1  0
  1  7  2  0
  3  8  1  6
  4 10  1  0
  5 11  1  0
 11 12  1  0
  6 13  1  0
  7 14  1  0
  3 15  1  0
  9 15  1  6
 10 16  2  0
 11 17  1  0
 17 18  1  0
 19 18  1  1
 13 20  1  0
 14 21  2  0
  9 22  1  0
 16 23  1  0
 17 24  1  0
  5 25  1  0
 24 25  1  0
 20 26  1  0
  4 27  2  0
  9 28  2  0
 23 29  2  0
 24 30  1  0
  3 31  1  0
 30 31  1  0
 21 32  1  0
 26 33  1  0
 33 34  2  0
  1 35  1  0
 32 35  2  0
 35 36  1  0
  9 37  1  0
 29 38  1  0
 33 39  1  0
 32 40  1  0
 19 41  1  0
 10 42  1  0
 38 42  2  0
 39 43  1  0
 40 44  2  0
 19 45  2  0
 43 46  1  0
  5 47  1  0
 21 47  1  0
 44 47  1  0
 19 48  1  0
 46 49  1  0
 49 50  2  0
 49 51  1  0
 51 52  1  0
 53 51  1  6
 37 54  1  0
 53 54  1  0
 53 55  1  0
 53 56  1  0
  5 57  1  1
  7 58  1  0
  8 59  1  0
 11 60  1  6
 12 61  1  0
 13 62  1  1
 13 63  1  0
 16 64  1  0
 17 65  1  6
 20 66  1  1
 20 67  1  0
 22 68  1  0
 23 69  1  0
 24 70  1  1
 26 71  1  0
 29 72  1  0
 30 73  1  6
 30 74  1  0
 36 75  1  0
 36 76  1  0
 38 77  1  0
 39 78  1  6
 39 79  1  0
 41 80  1  0
 42 81  1  0
 43 82  1  6
 43 83  1  0
 44 84  1  0
 46 85  1  0
 48 86  1  0
 51 87  1  6
 52 88  1  0
 54 89  1  1
 54 90  1  0
 55 91  1  6
 55 92  1  0
 55 93  1  0
 56 94  1  6
 56 95  1  0
 56 96  1  0
M  END
