1Q41_IXM_A_451
     RDKit          3D

 21 24  0  0  0  0  0  0  0  0999 V2000
   28.8529   -4.6647   22.2116 C   0  0  0  0  0  0  0  0  0  0  0  0
   27.7351   -3.7166   22.5212 C   0  0  0  0  0  0  0  0  0  0  0  0
   29.4030   -4.2270   20.9829 C   0  0  0  0  0  0  0  0  0  0  0  0
   28.7375   -3.1342   20.5128 N   0  0  0  0  0  0  0  0  0  0  0  0
   30.4956   -4.8827   20.3814 C   0  0  0  0  0  0  0  0  0  0  0  0
   31.0419   -6.0191   21.0316 C   0  0  0  0  0  0  0  0  0  0  0  0
   30.4892   -6.4723   22.2704 C   0  0  0  0  0  0  0  0  0  0  0  0
   29.3819   -5.7913   22.8755 C   0  0  0  0  0  0  0  0  0  0  0  0
   27.7077   -2.7481   21.3437 C   0  0  0  0  0  0  0  0  0  0  0  0
   26.8685   -1.6989   21.1238 C   0  0  0  0  0  0  0  0  0  0  0  0
   26.9605   -0.9952   19.7729 C   0  0  0  0  0  0  0  0  0  0  0  0
   26.0447    0.0459   19.8273 N   0  0  0  0  0  0  0  0  0  0  0  0
   25.3837    0.0810   21.0456 C   0  0  0  0  0  0  0  0  0  0  0  0
   25.8337   -0.9626   21.8982 C   0  0  0  0  0  0  0  0  0  0  0  0
   24.3999    1.0233   21.4202 C   0  0  0  0  0  0  0  0  0  0  0  0
   23.8410    0.9176   22.7163 C   0  0  0  0  0  0  0  0  0  0  0  0
   24.2687   -0.1204   23.6011 C   0  0  0  0  0  0  0  0  0  0  0  0
   25.2669   -1.0654   23.1897 C   0  0  0  0  0  0  0  0  0  0  0  0
   27.6951   -1.2657   18.8217 O   0  0  0  0  0  0  0  0  0  0  0  0
   26.9431   -3.6393   23.5468 N   0  0  0  0  0  0  0  0  0  0  0  0
   27.1251   -4.5962   24.5464 O   0  0  0  0  0  0  0  0  0  0  0  0
  1  2  1  0
  1  3  2  0
  3  4  1  0
  3  5  1  0
  5  6  2  0
  6  7  1  0
  1  8  1  0
  7  8  2  0
  2  9  1  0
  4  9  1  0
  9 10  2  0
 10 11  1  0
 11 12  1  0
 12 13  1  0
 10 14  1  0
 13 14  2  0
 13 15  1  0
 15 16  2  0
 16 17  1  0
 14 18  1  0
 17 18  2  0
 11 19  2  0
  2 20  2  0
 20 21  1  0
M  END
