1Q41_IXM_B_452
     RDKit          3D

 21 24  0  0  0  0  0  0  0  0999 V2000
   28.8937   -4.6161   22.1927 C   0  0  0  0  0  0  0  0  0  0  0  0
   28.4898   -3.2935   21.6135 C   0  0  0  0  0  0  0  0  0  0  0  0
   27.8616   -4.9766   23.1011 C   0  0  0  0  0  0  0  0  0  0  0  0
   26.8793   -4.0158   23.1383 N   0  0  0  0  0  0  0  0  0  0  0  0
   27.9135   -6.1815   23.8309 C   0  0  0  0  0  0  0  0  0  0  0  0
   29.0394   -7.0478   23.6463 C   0  0  0  0  0  0  0  0  0  0  0  0
   30.0847   -6.6883   22.7357 C   0  0  0  0  0  0  0  0  0  0  0  0
   30.0139   -5.4637   21.9985 C   0  0  0  0  0  0  0  0  0  0  0  0
   27.1460   -2.9544   22.2878 C   0  0  0  0  0  0  0  0  0  0  0  0
   26.3249   -1.8702   22.0798 C   0  0  0  0  0  0  0  0  0  0  0  0
   25.0881   -1.7304   22.9836 C   0  0  0  0  0  0  0  0  0  0  0  0
   24.3919   -0.6278   22.5089 N   0  0  0  0  0  0  0  0  0  0  0  0
   25.0399   -0.0462   21.4221 C   0  0  0  0  0  0  0  0  0  0  0  0
   26.2378   -0.7465   21.1049 C   0  0  0  0  0  0  0  0  0  0  0  0
   24.5838    1.0880   20.6982 C   0  0  0  0  0  0  0  0  0  0  0  0
   25.3633    1.5443   19.6059 C   0  0  0  0  0  0  0  0  0  0  0  0
   26.5750    0.8667   19.2628 C   0  0  0  0  0  0  0  0  0  0  0  0
   27.0154   -0.2805   20.0108 C   0  0  0  0  0  0  0  0  0  0  0  0
   24.7529   -2.4421   23.9186 O   0  0  0  0  0  0  0  0  0  0  0  0
   29.0815   -2.5413   20.7282 N   0  0  0  0  0  0  0  0  0  0  0  0
   30.2977   -3.0123   20.2108 O   0  0  0  0  0  0  0  0  0  0  0  0
  1  2  1  0
  1  3  2  0
  3  4  1  0
  3  5  1  0
  5  6  2  0
  6  7  1  0
  1  8  1  0
  7  8  2  0
  2  9  1  0
  4  9  1  0
  9 10  2  0
 10 11  1  0
 11 12  1  0
 12 13  1  0
 10 14  1  0
 13 14  2  0
 13 15  1  0
 15 16  2  0
 16 17  1  0
 14 18  1  0
 17 18  2  0
 11 19  2  0
  2 20  2  0
 20 21  1  0
M  END
