1YQY_915_A_782
     RDKit          3D

 23 24  0  0  0  0  0  0  0  0999 V2000
   10.8323   20.1698   28.9779 C   0  0  0  0  0  0  0  0  0  0  0  0
   10.2947   21.2714   28.3442 C   0  0  0  0  0  0  0  0  0  0  0  0
    9.0911   21.8394   28.6944 C   0  0  0  0  0  0  0  0  0  0  0  0
    8.3839   21.2879   29.7252 C   0  0  0  0  0  0  0  0  0  0  0  0
    8.8651   20.1861   30.4005 C   0  0  0  0  0  0  0  0  0  0  0  0
   10.0801   19.6327   30.0283 C   0  0  0  0  0  0  0  0  0  0  0  0
    7.1935   21.8117   30.1072 F   0  0  0  0  0  0  0  0  0  0  0  0
    8.5280   23.0269   27.9991 C   0  0  0  0  0  0  0  0  0  0  0  0
   12.3467   19.4436   28.5491 S   0  0  2  0  0  6  0  0  0  0  0  0
   12.5186   19.1676   26.8553 N   0  0  0  0  0  0  0  0  0  0  0  0
   11.7748   17.9562   26.4422 C   0  0  1  0  0  0  0  0  0  0  0  0
   10.5190   18.3803   25.7782 C   0  0  0  0  0  0  0  0  0  0  0  0
    9.2385   17.9048   26.0203 N   0  0  0  0  0  0  0  0  0  0  0  0
    8.1428   18.3994   25.3581 O   0  0  0  0  0  0  0  0  0  0  0  0
   10.6511   19.2904   24.8866 O   0  0  0  0  0  0  0  0  0  0  0  0
   12.6561   18.2076   29.3429 O   0  0  0  0  0  0  0  0  0  0  0  0
   13.4397   20.4350   28.9133 O   0  0  0  0  0  0  0  0  0  0  0  0
   12.6392   17.2454   25.4443 C   0  0  2  0  0  0  0  0  0  0  0  0
   11.9381   16.1008   24.8218 C   0  0  0  0  0  0  0  0  0  0  0  0
   12.9716   15.1059   24.2436 C   0  0  0  0  0  0  0  0  0  0  0  0
   14.0520   15.8825   23.8417 O   0  0  0  0  0  0  0  0  0  0  0  0
   14.8202   16.2787   24.9201 C   0  0  0  0  0  0  0  0  0  0  0  0
   13.9327   16.7493   26.0521 C   0  0  0  0  0  0  0  0  0  0  0  0
  1  2  2  0
  2  3  1  0
  3  4  2  0
  4  5  1  0
  1  6  1  0
  5  6  2  0
  4  7  1  0
  8  3  1  6
  1  9  1  0
  9 10  1  6
 11 10  1  6
 11 12  1  0
 12 13  1  0
 13 14  1  0
 12 15  2  0
  9 16  2  0
  9 17  2  0
 18 11  1  1
 18 19  1  0
 19 20  1  1
 20 21  1  6
 22 21  1  1
 18 23  1  0
 23 22  1  1
M  END
$$$$
