8ACL_LQL_A_401
     RDKit          3D

 51 54  0  0  0  0  0  0  0  0999 V2000
   -1.6153   -0.1525   -2.2308 N   0  0  0  0  0  0  0  0  0  0  0  0
   -1.4288   -3.7640   -5.1749 N   0  0  0  0  0  0  0  0  0  0  0  0
   -2.4857   -0.9714   -4.6731 C   0  0  0  0  0  0  0  0  0  0  0  0
   -3.5221   -1.8370   -4.3482 C   0  0  0  0  0  0  0  0  0  0  0  0
    0.4103   -0.0222   -0.8302 C   0  0  2  0  0  0  0  0  0  0  0  0
   -0.4015    0.6295   -1.9591 C   0  0  0  0  0  0  0  0  0  0  0  0
   -2.3320   -0.8038   -1.1266 C   0  0  0  0  0  0  0  0  0  0  0  0
    0.1705   -0.1185    1.6953 C   0  0  0  0  0  0  0  0  0  0  0  0
    1.3427    0.0175    4.2606 C   0  0  0  0  0  0  0  0  0  0  0  0
    1.1585    0.8430    1.9887 C   0  0  0  0  0  0  0  0  0  0  0  0
   -2.2474   -1.7911   -4.0844 C   0  0  0  0  0  0  0  0  0  0  0  0
   -3.7015   -3.6984   -4.4536 C   0  0  0  0  0  0  0  0  0  0  0  0
   -3.5070   -2.4014   -3.9765 C   0  0  0  0  0  0  0  0  0  0  0  0
    0.1088   -2.4894   -1.3811 N   0  0  0  0  0  0  0  0  0  0  0  0
    0.9696   -1.3459   -1.2923 C   0  0  0  0  0  0  0  0  0  0  0  0
    2.1953   -1.4550   -1.5713 O   0  0  0  0  0  0  0  0  0  0  0  0
   -0.1792   -3.1521   -2.6492 C   0  0  0  0  0  0  0  0  0  0  0  0
   -0.2153   -1.0143    2.7131 C   0  0  0  0  0  0  0  0  0  0  0  0
    0.3630   -0.9486    3.9861 C   0  0  0  0  0  0  0  0  0  0  0  0
    1.7359    0.9081    3.2589 C   0  0  0  0  0  0  0  0  0  0  0  0
   -2.0364   -0.4124   -3.5844 C   0  0  0  0  0  0  0  0  0  0  0  0
   -1.2126   -2.5029   -4.7141 C   0  0  0  0  0  0  0  0  0  0  0  0
   -2.6373   -4.3732   -5.0521 C   0  0  0  0  0  0  0  0  0  0  0  0
   -1.3283   -2.4774   -3.3293 C   0  0  0  0  0  0  0  0  0  0  0  0
   -1.2562   -1.3306   -4.1092 C   0  0  0  0  0  0  0  0  0  0  0  0
   -1.8968   -0.2594    0.2421 C   0  0  0  0  0  0  0  0  0  0  0  0
   -0.4287   -0.1877    0.3752 N   0  0  0  0  0  0  0  0  0  0  0  0
   -2.2263    0.5578   -4.3681 O   0  0  0  0  0  0  0  0  0  0  0  0
   -2.9063   -3.0556   -3.3658 S   0  0  0  0  0  0  0  0  0  0  0  0
   -0.1615   -2.0885    5.2185 Cl  0  0  0  0  0  0  0  0  0  0  0  0
    2.0938    0.1322    5.8465 Cl  0  0  0  0  0  0  0  0  0  0  0  0
   -2.6153   -0.1054   -5.3082 H   0  0  0  0  0  0  0  0  0  0  0  0
   -4.5470   -1.7465   -4.6811 H   0  0  0  0  0  0  0  0  0  0  0  0
    1.2576    0.6612   -0.5988 H   0  0  0  0  0  0  0  0  0  0  0  0
   -0.6904    1.6560   -1.6477 H   0  0  0  0  0  0  0  0  0  0  0  0
    0.2291    0.7139   -2.8719 H   0  0  0  0  0  0  0  0  0  0  0  0
   -3.4245   -0.6338   -1.2424 H   0  0  0  0  0  0  0  0  0  0  0  0
   -2.1481   -1.8990   -1.1644 H   0  0  0  0  0  0  0  0  0  0  0  0
    1.5004    1.5384    1.2344 H   0  0  0  0  0  0  0  0  0  0  0  0
   -4.6688   -4.1752   -4.3620 H   0  0  0  0  0  0  0  0  0  0  0  0
   -4.3358   -1.8797   -3.5168 H   0  0  0  0  0  0  0  0  0  0  0  0
   -0.2902   -2.8951   -0.5045 H   0  0  0  0  0  0  0  0  0  0  0  0
   -0.3993   -4.2277   -2.4760 H   0  0  0  0  0  0  0  0  0  0  0  0
    0.7124   -3.0897   -3.3090 H   0  0  0  0  0  0  0  0  0  0  0  0
   -0.9733   -1.7623    2.5318 H   0  0  0  0  0  0  0  0  0  0  0  0
    2.4949    1.6529    3.4624 H   0  0  0  0  0  0  0  0  0  0  0  0
   -0.2416   -2.0514   -4.8629 H   0  0  0  0  0  0  0  0  0  0  0  0
   -2.7740   -5.3784   -5.4278 H   0  0  0  0  0  0  0  0  0  0  0  0
   -0.3434   -0.7729   -4.2725 H   0  0  0  0  0  0  0  0  0  0  0  0
   -2.3167   -0.9253    1.0275 H   0  0  0  0  0  0  0  0  0  0  0  0
   -2.3234    0.7581    0.3770 H   0  0  0  0  0  0  0  0  0  0  0  0
  3  4  4  0
  1  6  1  0
  5  6  1  0
  1  7  1  0
  8 10  4  0
 12 13  4  0
 11 13  4  0
  5 15  1  0
 14 15  1  0
 15 16  2  0
 14 17  1  0
  8 18  4  0
 18 19  4  0
  9 19  4  0
 10 20  4  0
  9 20  4  0
 11 21  1  0
  1 21  1  0
  2 22  4  0
 11 22  4  0
 12 23  4  0
  2 23  4  0
 17 24  1  0
 24 25  4  0
  3 25  4  0
  7 26  1  0
  5 27  1  0
 26 27  1  0
  8 27  1  0
 21 28  2  0
 24 29  4  0
  4 29  4  0
 19 30  1  0
  9 31  1  0
  3 32  1  0
  4 33  1  0
  5 34  1  6
  6 35  1  0
  6 36  1  0
  7 37  1  0
  7 38  1  0
 10 39  1  0
 12 40  1  0
 13 41  1  0
 14 42  1  0
 17 43  1  0
 17 44  1  0
 18 45  1  0
 20 46  1  0
 22 47  1  0
 23 48  1  0
 25 49  1  0
 26 50  1  0
 26 51  1  0
M  END
