1OWE_675_A_1001
     RDKit          3D

 37 39  0  0  0  0  0  0  0  0999 V2000
   24.3877    9.7935   31.1331 N   0  0  0  0  0  0  0  0  0  0  0  0
   24.8890   11.0582   31.0889 C   0  0  0  0  0  0  0  0  0  0  0  0
   26.0758   11.4020   30.5001 N   0  0  0  0  0  0  0  0  0  0  0  0
   24.0497   12.0894   31.7747 C   0  0  0  0  0  0  0  0  0  0  0  0
   22.6239   11.9881   31.9741 C   0  0  0  0  0  0  0  0  0  0  0  0
   21.7698   12.9667   32.5547 C   0  0  0  0  0  0  0  0  0  0  0  0
   22.3880   14.1518   33.0205 C   0  0  0  0  0  0  0  0  0  0  0  0
   21.6593   15.1278   33.6891 C   0  0  0  0  0  0  0  0  0  0  0  0
   22.2497   16.3030   34.2780 C   0  0  0  0  0  0  0  0  0  0  0  0
   23.7110   16.3116   34.0870 C   0  0  0  0  0  0  0  0  0  0  0  0
   24.4943   15.3728   33.4496 C   0  0  0  0  0  0  0  0  0  0  0  0
   23.8260   14.3102   32.9158 C   0  0  0  0  0  0  0  0  0  0  0  0
   24.5611   13.3161   32.3241 C   0  0  0  0  0  0  0  0  0  0  0  0
   21.5291   17.3521   34.9857 C   0  0  0  0  0  0  0  0  0  0  0  0
   20.8157   17.0096   35.9215 O   0  0  0  0  0  0  0  0  0  0  0  0
   21.5470   18.5883   34.3915 N   0  0  0  0  0  0  0  0  0  0  0  0
   20.4096   19.3549   34.2531 C   0  0  0  0  0  0  0  0  0  0  0  0
   19.3497   18.6347   33.6928 C   0  0  0  0  0  0  0  0  0  0  0  0
   18.1496   19.2869   33.4081 C   0  0  0  0  0  0  0  0  0  0  0  0
   18.0254   20.6637   33.7729 C   0  0  0  0  0  0  0  0  0  0  0  0
   19.0373   21.3710   34.4177 C   0  0  0  0  0  0  0  0  0  0  0  0
   20.2475   20.7050   34.6690 C   0  0  0  0  0  0  0  0  0  0  0  0
   24.8780    9.0544   30.7059 H   0  0  0  0  0  0  0  0  0  0  0  0
   26.6199   10.7151   30.0516 H   0  0  0  0  0  0  0  0  0  0  0  0
   26.3853   12.3363   30.5251 H   0  0  0  0  0  0  0  0  0  0  0  0
   22.1760   11.1123   31.6622 H   0  0  0  0  0  0  0  0  0  0  0  0
   20.7512   12.8199   32.6322 H   0  0  0  0  0  0  0  0  0  0  0  0
   20.6378   15.0041   33.7684 H   0  0  0  0  0  0  0  0  0  0  0  0
   24.2118   17.1236   34.4805 H   0  0  0  0  0  0  0  0  0  0  0  0
   25.5196   15.4680   33.3807 H   0  0  0  0  0  0  0  0  0  0  0  0
   25.5812   13.4622   32.2671 H   0  0  0  0  0  0  0  0  0  0  0  0
   22.4016   18.9402   34.0521 H   0  0  0  0  0  0  0  0  0  0  0  0
   19.4545   17.6280   33.4915 H   0  0  0  0  0  0  0  0  0  0  0  0
   17.3725   18.7888   32.9464 H   0  0  0  0  0  0  0  0  0  0  0  0
   17.1464   21.1556   33.5485 H   0  0  0  0  0  0  0  0  0  0  0  0
   18.9017   22.3539   34.7018 H   0  0  0  0  0  0  0  0  0  0  0  0
   21.0166   21.1935   35.1537 H   0  0  0  0  0  0  0  0  0  0  0  0
  1  2  2  3
  2  3  1  0
  2  4  1  0
  4  5  2  0
  5  6  1  0
  6  7  2  0
  7  8  1  0
  8  9  2  0
  9 10  1  0
 10 11  2  0
  7 12  1  0
 11 12  1  0
  4 13  1  0
 12 13  2  0
  9 14  1  0
 14 15  2  0
 14 16  1  0
 16 17  1  0
 17 18  2  0
 18 19  1  0
 19 20  2  0
 20 21  1  0
 17 22  1  0
 21 22  2  0
  1 23  1  0
  3 24  1  0
  3 25  1  0
  5 26  1  0
  6 27  1  0
  8 28  1  0
 10 29  1  0
 11 30  1  0
 13 31  1  0
 16 32  1  0
 18 33  1  0
 19 34  1  0
 20 35  1  0
 21 36  1  0
 22 37  1  0
M  END
