1OWE_675_A_1001
     RDKit          3D

 37 39  0  0  0  0  0  0  0  0999 V2000
    0.9995    5.4314   -3.1496 N   0  0  0  0  0  0  0  0  0  0  0  0
    0.8223    4.2283   -3.6006 C   0  0  0  0  0  0  0  0  0  0  0  0
    0.8962    4.0020   -5.0106 N   0  0  0  0  0  0  0  0  0  0  0  0
    0.5565    3.0980   -2.6753 C   0  0  0  0  0  0  0  0  0  0  0  0
   -0.2467    3.2775   -1.5351 C   0  0  0  0  0  0  0  0  0  0  0  0
   -0.5003    2.2117   -0.6682 C   0  0  0  0  0  0  0  0  0  0  0  0
    0.0450    0.9461   -0.9249 C   0  0  0  0  0  0  0  0  0  0  0  0
   -0.2051   -0.1292   -0.0581 C   0  0  0  0  0  0  0  0  0  0  0  0
    0.3457   -1.3984   -0.3149 C   0  0  0  0  0  0  0  0  0  0  0  0
    1.1379   -1.5792   -1.4626 C   0  0  0  0  0  0  0  0  0  0  0  0
    1.3912   -0.5135   -2.3297 C   0  0  0  0  0  0  0  0  0  0  0  0
    0.8505    0.7529   -2.0699 C   0  0  0  0  0  0  0  0  0  0  0  0
    1.1001    1.8282   -2.9367 C   0  0  0  0  0  0  0  0  0  0  0  0
    0.0812   -2.5406    0.5940 C   0  0  0  0  0  0  0  0  0  0  0  0
    0.2676   -3.7182    0.1812 O   0  0  0  0  0  0  0  0  0  0  0  0
   -0.3356   -2.3202    1.9522 N   0  0  0  0  0  0  0  0  0  0  0  0
   -0.9948   -3.3136    2.7569 C   0  0  0  0  0  0  0  0  0  0  0  0
   -0.8271   -3.2944    4.1510 C   0  0  0  0  0  0  0  0  0  0  0  0
   -1.4754   -4.2370    4.9552 C   0  0  0  0  0  0  0  0  0  0  0  0
   -2.3075   -5.1979    4.3757 C   0  0  0  0  0  0  0  0  0  0  0  0
   -2.4984   -5.2130    2.9918 C   0  0  0  0  0  0  0  0  0  0  0  0
   -1.8513   -4.2727    2.1837 C   0  0  0  0  0  0  0  0  0  0  0  0
    0.9794    5.6643   -2.1318 H   0  0  0  0  0  0  0  0  0  0  0  0
    1.1246    4.7880   -5.6593 H   0  0  0  0  0  0  0  0  0  0  0  0
    0.6720    3.0689   -5.4214 H   0  0  0  0  0  0  0  0  0  0  0  0
   -0.6976    4.2386   -1.3228 H   0  0  0  0  0  0  0  0  0  0  0  0
   -1.1258    2.3768    0.2012 H   0  0  0  0  0  0  0  0  0  0  0  0
   -0.8440    0.0230    0.8033 H   0  0  0  0  0  0  0  0  0  0  0  0
    1.5718   -2.5459   -1.6865 H   0  0  0  0  0  0  0  0  0  0  0  0
    2.0096   -0.6805   -3.2037 H   0  0  0  0  0  0  0  0  0  0  0  0
    1.7328    1.6798   -3.8041 H   0  0  0  0  0  0  0  0  0  0  0  0
   -0.0441   -1.4306    2.4166 H   0  0  0  0  0  0  0  0  0  0  0  0
   -0.1864   -2.5537    4.6129 H   0  0  0  0  0  0  0  0  0  0  0  0
   -1.3340   -4.2208    6.0282 H   0  0  0  0  0  0  0  0  0  0  0  0
   -2.8104   -5.9256    4.9994 H   0  0  0  0  0  0  0  0  0  0  0  0
   -3.1547   -5.9488    2.5453 H   0  0  0  0  0  0  0  0  0  0  0  0
   -2.0391   -4.2826    1.1183 H   0  0  0  0  0  0  0  0  0  0  0  0
  1  2  2  0
  2  3  1  0
  2  4  1  0
  4  5  2  0
  5  6  1  0
  6  7  2  0
  7  8  1  0
  8  9  2  0
  9 10  1  0
 10 11  2  0
  7 12  1  0
 11 12  1  0
  4 13  1  0
 12 13  2  0
  9 14  1  0
 14 15  2  0
 14 16  1  0
 16 17  1  0
 17 18  2  0
 18 19  1  0
 19 20  2  0
 20 21  1  0
 17 22  1  0
 21 22  2  0
  1 23  1  0
  3 24  1  0
  3 25  1  0
  5 26  1  0
  6 27  1  0
  8 28  1  0
 10 29  1  0
 11 30  1  0
 13 31  1  0
 16 32  1  0
 18 33  1  0
 19 34  1  0
 20 35  1  0
 21 36  1  0
 22 37  1  0
M  END
