7RSV_7IQ_B_901
     RDKit          3D

 20 23  0  0  0  0  0  0  0  0999 V2000
   11.0864  -29.7152    5.7537 C   0  0  0  0  0  0  0  0  0  0  0  0
    7.9183  -23.9626    8.9481 C   0  0  2  0  0  0  0  0  0  0  0  0
   12.4849  -27.7950    5.9520 C   0  0  0  0  0  0  0  0  0  0  0  0
    7.2443  -26.2701    8.2415 C   0  0  0  0  0  0  0  0  0  0  0  0
   11.4919  -27.1311    6.9071 C   0  0  0  0  0  0  0  0  0  0  0  0
    9.1558  -26.9469    7.3282 C   0  0  0  0  0  0  0  0  0  0  0  0
    7.8339  -27.3289    7.6085 C   0  0  0  0  0  0  0  0  0  0  0  0
   10.3175  -29.6761    8.1341 C   0  0  0  0  0  0  0  0  0  0  0  0
    9.1159  -23.5142    9.8198 C   0  0  0  0  0  0  0  0  0  0  0  0
    8.6779  -23.7281   11.2860 C   0  0  0  0  0  0  0  0  0  0  0  0
    7.2771  -24.3545   11.2479 C   0  0  0  0  0  0  0  0  0  0  0  0
    6.6828  -23.9845    9.8662 C   0  0  2  0  0  0  0  0  0  0  0  0
   10.0477  -29.1466    6.7201 C   0  0  1  0  0  0  0  0  0  0  0  0
    5.8837  -26.0826    8.7682 C   0  0  0  0  0  0  0  0  0  0  0  0
    8.1811  -25.2636    8.3455 N   0  0  0  0  0  0  0  0  0  0  0  0
    9.3486  -25.7257    7.7664 N   0  0  0  0  0  0  0  0  0  0  0  0
    5.6753  -24.9794    9.5185 N   0  0  0  0  0  0  0  0  0  0  0  0
   10.1502  -27.6804    6.6771 N   0  0  0  0  0  0  0  0  0  0  0  0
    4.9860  -26.8724    8.5355 O   0  0  0  0  0  0  0  0  0  0  0  0
   12.3742  -29.2123    6.1144 O   0  0  0  0  0  0  0  0  0  0  0  0
  3  5  1  0
  4  7  2  0
  6  7  1  0
  2  9  1  1
  9 10  1  0
 10 11  1  0
 12 11  1  1
  2 12  1  0
 13  8  1  1
  1 13  1  0
  4 14  1  0
  2 15  1  0
  4 15  1  0
 15 16  1  0
  6 16  2  0
 12 17  1  0
 14 17  1  0
  6 18  1  0
  5 18  1  0
 13 18  1  0
 14 19  2  0
  3 20  1  0
  1 20  1  0
M  END
