7WY1_D0L_B_502
     RDKit          3D

 26 27  0  0  0  0  0  0  0  0999 V2000
   -3.7052  -30.8138  -72.8648 C   0  0  0  0  0  0  0  0  0  0  0  0
   -2.4178  -31.3119  -72.8396 C   0  0  0  0  0  0  0  0  0  0  0  0
   -0.4895  -24.5297  -68.6804 C   0  0  0  0  0  0  0  0  0  0  0  0
    1.3882  -25.7226  -67.9975 C   0  0  0  0  0  0  0  0  0  0  0  0
   -1.3916  -30.7187  -71.9376 C   0  0  0  0  0  0  0  0  0  0  0  0
    1.4131  -27.5440  -69.4491 C   0  0  0  0  0  0  0  0  0  0  0  0
   -0.6807  -27.2915  -70.5430 C   0  0  0  0  0  0  0  0  0  0  0  0
   -2.1072  -32.3855  -73.6740 C   0  0  0  0  0  0  0  0  0  0  0  0
    2.2659  -26.8312  -68.4645 C   0  0  0  0  0  0  0  0  0  0  0  0
    0.3642  -26.4996  -69.9100 C   0  0  1  0  0  0  0  0  0  0  0  0
   -4.6694  -31.3670  -73.6974 C   0  0  0  0  0  0  0  0  0  0  0  0
   -1.7564  -29.3427  -71.4556 C   0  0  1  0  0  0  0  0  0  0  0  0
   -4.3826  -32.4378  -74.5358 C   0  0  0  0  0  0  0  0  0  0  0  0
   -2.9697  -29.3214  -70.6068 C   0  0  0  0  0  0  0  0  0  0  0  0
   -3.0720  -32.9219  -74.4931 C   0  0  0  0  0  0  0  0  0  0  0  0
   -2.9495  -29.5098  -69.3509 O   0  0  0  0  0  0  0  0  0  0  0  0
   -1.7548  -26.6834  -70.9032 O   0  0  0  0  0  0  0  0  0  0  0  0
   -4.2209  -29.0876  -71.1554 O   0  0  0  0  0  0  0  0  0  0  0  0
    0.1282  -25.7832  -68.7503 N   0  0  0  0  0  0  0  0  0  0  0  0
    0.0165  -23.5088  -67.7265 C   0  0  0  0  0  0  0  0  0  0  0  0
   -1.1272  -22.5274  -67.4228 C   0  0  0  0  0  0  0  0  0  0  0  0
   -1.5694  -22.5382  -66.0060 C   0  0  0  0  0  0  0  0  0  0  0  0
   -2.1363  -21.2536  -65.4929 C   0  0  0  0  0  0  0  0  0  0  0  0
   -2.2712  -21.1673  -64.0042 C   0  0  0  0  0  0  0  0  0  0  0  0
   -2.0213  -19.7038  -63.6405 C   0  0  0  0  0  0  0  0  0  0  0  0
   -0.6585  -28.6735  -70.8096 N   0  0  0  0  0  0  0  0  0  0  0  0
  1  2  2  0
  5  2  1  6
  2  8  1  0
  9  4  1  6
  6  9  1  0
  6 10  1  6
 10  7  1  1
  1 11  1  0
 12  5  1  0
 11 13  2  0
 12 14  1  0
 13 15  1  0
  8 15  2  0
 14 16  2  0
  7 17  2  0
 14 18  1  0
  4 19  1  6
  3 19  1  1
 10 19  1  0
 20  3  1  6
 21 20  1  1
 22 21  1  1
 23 22  1  1
 23 24  1  0
 24 25  1  6
  7 26  1  0
 12 26  1  1
M  END
$$$$
