7F8T_FAD_A_512
     RDKit          3D

 86 91  0  0  0  0  0  0  0  0999 V2000
   24.1460   23.3575  112.3982 P   0  0  1  0  0  5  0  0  0  0  0  0
   25.3051   24.2976  112.6533 O   0  0  0  0  0  0  0  0  0  0  0  0
   24.2316   22.0657  113.4973 O   0  0  0  0  0  0  0  0  0  0  0  0
   22.6732   24.2055  112.5631 O   0  0  0  0  0  0  0  0  0  0  0  0
   21.6748   23.3093  112.9932 C   0  0  1  0  0  0  0  0  0  0  0  0
   20.4415   23.4183  112.0855 C   0  0  1  0  0  0  0  0  0  0  0  0
   19.6566   24.5288  112.4829 O   0  0  0  0  0  0  0  0  0  0  0  0
   20.8279   23.5556  110.6035 C   0  0  1  0  0  0  0  0  0  0  0  0
   20.0402   22.6840  109.8311 O   0  0  0  0  0  0  0  0  0  0  0  0
   20.4949   25.0021  110.3170 C   0  0  1  0  0  0  0  0  0  0  0  0
   20.1083   25.2415  108.9816 O   0  0  0  0  0  0  0  0  0  0  0  0
   19.3971   25.2984  111.3313 C   0  0  2  0  0  0  0  0  0  0  0  0
   19.3626   26.7276  111.6545 N   0  0  0  0  0  0  0  0  0  0  0  0
   18.2547   27.4938  111.8269 C   0  0  0  0  0  0  0  0  0  0  0  0
   18.5327   28.8115  112.0306 N   0  0  0  0  0  0  0  0  0  0  0  0
   19.8758   28.8446  111.9696 C   0  0  0  0  0  0  0  0  0  0  0  0
   20.7396   29.9255  112.0981 C   0  0  0  0  0  0  0  0  0  0  0  0
   20.2603   31.2512  112.3245 N   0  0  0  0  0  0  0  0  0  0  0  0
   22.0795   29.6810  111.9850 N   0  0  0  0  0  0  0  0  0  0  0  0
   22.5575   28.4163  111.7550 C   0  0  0  0  0  0  0  0  0  0  0  0
   21.6988   27.3613  111.6299 N   0  0  0  0  0  0  0  0  0  0  0  0
   20.3712   27.6061  111.7409 C   0  0  0  0  0  0  0  0  0  0  0  0
   19.1935   22.9080  108.7727 N   0  0  0  0  0  0  0  0  0  0  0  0
   17.9791   22.5955  108.2453 C   0  0  0  0  0  0  0  0  0  0  0  0
   16.9368   23.0744  108.7664 O   0  0  0  0  0  0  0  0  0  0  0  0
   17.8815   21.7703  107.1623 N   0  0  0  0  0  0  0  0  0  0  0  0
   18.9867   21.2343  106.5741 C   0  0  0  0  0  0  0  0  0  0  0  0
   18.8648   20.4794  105.5713 O   0  0  0  0  0  0  0  0  0  0  0  0
   20.2509   21.5267  107.0847 C   0  0  0  0  0  0  0  0  0  0  0  0
   21.3801   21.0451  106.5264 N   0  0  0  0  0  0  0  0  0  0  0  0
   22.5982   21.3523  107.0354 C   0  0  0  0  0  0  0  0  0  0  0  0
   23.7329   20.8378  106.4056 C   0  0  0  0  0  0  0  0  0  0  0  0
   25.0154   21.1107  106.8966 C   0  0  0  0  0  0  0  0  0  0  0  0
   26.2159   20.5609  106.1728 C   0  0  2  0  0  0  0  0  0  0  0  0
   25.1603   21.9020  108.0548 C   0  0  0  0  0  0  0  0  0  0  0  0
   26.5225   22.1951  108.6300 C   0  0  1  0  0  0  0  0  0  0  0  0
   24.0197   22.4280  108.6843 C   0  0  0  0  0  0  0  0  0  0  0  0
   22.7177   22.1893  108.1804 C   0  0  0  0  0  0  0  0  0  0  0  0
   21.5818   22.7374  108.7626 N   0  0  0  0  0  0  0  0  0  0  0  0
   20.3469   22.4110  108.2518 C   0  0  0  0  0  0  0  0  0  0  0  0
   21.6635   23.7017  109.8886 C   0  0  1  0  0  0  0  0  0  0  0  0
   23.1214   23.9373  110.3630 C   0  0  2  0  0  0  0  0  0  0  0  0
   23.6928   22.7017  110.7185 O   0  0  0  0  0  0  0  0  0  0  0  0
   23.2239   24.9579  111.5383 C   0  0  2  0  0  0  0  0  0  0  0  0
   22.1869   25.9087  111.4924 O   0  0  0  0  0  0  0  0  0  0  0  0
   24.6062   25.6634  111.6622 C   0  0  2  0  0  0  0  0  0  0  0  0
   24.4792   26.8235  112.4489 O   0  0  0  0  0  0  0  0  0  0  0  0
   25.3010   26.0054  110.3241 C   0  0  1  0  0  0  0  0  0  0  0  0
   25.3803   24.8540  109.5171 O   0  0  0  0  0  0  0  0  0  0  0  0
   23.9521   23.9394  109.7019 P   0  0  1  0  0  5  0  0  0  0  0  0
   22.8032   24.8185  110.1422 O   0  0  0  0  0  0  0  0  0  0  0  0
   23.5478   23.2237  108.2239 O   0  0  0  0  0  0  0  0  0  0  0  0
   24.2278   22.6930  110.8304 O   0  0  0  0  0  0  0  0  0  0  0  0
   25.0341   22.2477  114.0504 H   0  0  0  0  0  0  0  0  0  0  0  0
   22.0420   22.2603  112.9394 H   0  0  0  0  0  0  0  0  0  0  0  0
   21.3592   23.5321  114.0357 H   0  0  0  0  0  0  0  0  0  0  0  0
   19.8364   22.4962  112.2342 H   0  0  0  0  0  0  0  0  0  0  0  0
   21.9132   23.3549  110.4267 H   0  0  0  0  0  0  0  0  0  0  0  0
   20.3151   21.7596  110.0717 H   0  0  0  0  0  0  0  0  0  0  0  0
   21.3888   25.6270  110.5439 H   0  0  0  0  0  0  0  0  0  0  0  0
   19.2771   25.7813  108.9842 H   0  0  0  0  0  0  0  0  0  0  0  0
   18.3988   24.9913  110.9390 H   0  0  0  0  0  0  0  0  0  0  0  0
   17.2467   27.1023  111.7957 H   0  0  0  0  0  0  0  0  0  0  0  0
   19.2595   31.4280  112.5648 H   0  0  0  0  0  0  0  0  0  0  0  0
   20.9088   32.0639  112.2312 H   0  0  0  0  0  0  0  0  0  0  0  0
   23.6181   28.2549  111.6559 H   0  0  0  0  0  0  0  0  0  0  0  0
   16.9350   21.5460  106.7758 H   0  0  0  0  0  0  0  0  0  0  0  0
   23.6120   20.2189  105.5232 H   0  0  0  0  0  0  0  0  0  0  0  0
   26.3883   19.5080  106.4829 H   0  0  0  0  0  0  0  0  0  0  0  0
   27.1337   21.1450  106.3966 H   0  0  0  0  0  0  0  0  0  0  0  0
   26.0491   20.6008  105.0762 H   0  0  0  0  0  0  0  0  0  0  0  0
   27.0975   21.2519  108.7423 H   0  0  0  0  0  0  0  0  0  0  0  0
   27.1075   22.8802  107.9787 H   0  0  0  0  0  0  0  0  0  0  0  0
   26.4172   22.6750  109.6251 H   0  0  0  0  0  0  0  0  0  0  0  0
   24.1748   23.0282  109.5665 H   0  0  0  0  0  0  0  0  0  0  0  0
   21.2120   24.6822  109.6263 H   0  0  0  0  0  0  0  0  0  0  0  0
   21.0348   23.3542  110.7343 H   0  0  0  0  0  0  0  0  0  0  0  0
   23.7070   24.3351  109.5134 H   0  0  0  0  0  0  0  0  0  0  0  0
   22.9766   22.0154  110.6786 H   0  0  0  0  0  0  0  0  0  0  0  0
   23.0891   24.3815  112.4789 H   0  0  0  0  0  0  0  0  0  0  0  0
   22.1810   26.3130  110.5860 H   0  0  0  0  0  0  0  0  0  0  0  0
   25.2866   24.9821  112.2183 H   0  0  0  0  0  0  0  0  0  0  0  0
   25.2912   26.8921  113.0172 H   0  0  0  0  0  0  0  0  0  0  0  0
   24.7537   26.8136  109.7974 H   0  0  0  0  0  0  0  0  0  0  0  0
   26.3143   26.3861  110.5808 H   0  0  0  0  0  0  0  0  0  0  0  0
   24.4166   23.0328  107.7913 H   0  0  0  0  0  0  0  0  0  0  0  0
  1  2  2  0
  1  3  1  1
  1  4  1  0
  4  5  1  0
  6  5  1  0
  6  7  1  0
  6  8  1  0
  8  9  1  0
  8 10  1  0
 10 11  1  0
  7 12  1  0
 10 12  1  0
 12 13  1  0
 13 14  1  0
 14 15  2  0
 15 16  1  0
 16 17  2  0
 17 18  1  0
 17 19  1  0
 19 20  2  0
 20 21  1  0
 13 22  1  0
 16 22  1  0
 21 22  2  0
 23 24  1  0
 24 25  2  0
 24 26  1  0
 26 27  1  0
 27 28  2  0
 27 29  1  0
 29 30  2  0
 30 31  1  0
 31 32  1  0
 32 33  2  0
 33 34  1  0
 33 35  1  0
 35 36  1  0
 35 37  2  0
 31 38  2  0
 37 38  1  0
 38 39  1  0
 23 40  2  0
 29 40  1  0
 39 40  1  0
 39 41  1  0
 41 42  1  0
 42 43  1  0
 42 44  1  0
 44 45  1  0
 44 46  1  0
 46 47  1  0
 46 48  1  0
 48 49  1  0
 50 49  1  6
 50 51  2  0
 50 52  1  0
  1 53  1  0
 50 53  1  0
  3 54  1  0
  5 55  1  1
  5 56  1  0
  6 57  1  6
  8 58  1  1
  9 59  1  0
 10 60  1  1
 11 61  1  0
 12 62  1  6
 14 63  1  0
 18 64  1  0
 18 65  1  0
 20 66  1  0
 26 67  1  0
 32 68  1  0
 34 69  1  1
 34 70  1  0
 34 71  1  0
 36 72  1  1
 36 73  1  0
 36 74  1  0
 37 75  1  0
 41 76  1  6
 41 77  1  0
 42 78  1  6
 43 79  1  0
 44 80  1  1
 45 81  1  0
 46 82  1  1
 47 83  1  0
 48 84  1  6
 48 85  1  0
 52 86  1  0
M  END
