7RKW_5TV_A_502
     RDKit          3D

 25 27  0  0  0  0  0  0  0  0999 V2000
    5.0957   -5.3081   13.0191 C   0  0  0  0  0  0  0  0  0  0  0  0
    5.8005   -6.1660    9.9090 C   0  0  0  0  0  0  0  0  0  0  0  0
    1.6643   -5.3833   15.3917 F   0  0  0  0  0  0  0  0  0  0  0  0
    2.7804   -5.3638   14.6198 C   0  0  0  0  0  0  0  0  0  0  0  0
    3.3760   -4.1691   14.2378 C   0  0  0  0  0  0  0  0  0  0  0  0
    4.5028   -4.1339   13.4590 C   0  0  0  0  0  0  0  0  0  0  0  0
    4.5022   -6.5038   13.3996 C   0  0  0  0  0  0  0  0  0  0  0  0
    3.3629   -6.5360   14.1871 C   0  0  0  0  0  0  0  0  0  0  0  0
    6.3057   -5.3391   12.1810 C   0  0  2  0  0  0  0  0  0  0  0  0
    6.2911   -6.3540   11.1947 O   0  0  0  0  0  0  0  0  0  0  0  0
    5.4782   -4.9870    9.5993 O   0  0  0  0  0  0  0  0  0  0  0  0
    5.6646   -7.2737    8.9652 C   0  0  0  0  0  0  0  0  0  0  0  0
    6.1344   -8.5303    9.2829 C   0  0  0  0  0  0  0  0  0  0  0  0
    6.0137   -9.5996    8.3953 C   0  0  0  0  0  0  0  0  0  0  0  0
    6.6209  -11.1834    8.8293 Cl  0  0  0  0  0  0  0  0  0  0  0  0
    5.4039   -9.3270    7.1960 C   0  0  0  0  0  0  0  0  0  0  0  0
    4.9251   -8.0801    6.8526 C   0  0  0  0  0  0  0  0  0  0  0  0
    5.0573   -7.0286    7.7557 C   0  0  0  0  0  0  0  0  0  0  0  0
    4.1513   -7.7753    5.3072 Cl  0  0  0  0  0  0  0  0  0  0  0  0
    7.5927   -5.3426   12.9705 C   0  0  0  0  0  0  0  0  0  0  0  0
    8.7371   -4.8909   12.2396 N   0  0  0  0  0  0  0  0  0  0  0  0
    9.6485   -5.6692   11.6473 C   0  0  0  0  0  0  0  0  0  0  0  0
   10.5691   -4.8576   11.0633 N   0  0  0  0  0  0  0  0  0  0  0  0
   10.2012   -3.5740   11.3110 C   0  0  0  0  0  0  0  0  0  0  0  0
    9.0457   -3.5814   12.0530 C   0  0  0  0  0  0  0  0  0  0  0  0
  3  4  1  0
  4  5  2  0
  5  6  1  0
  1  6  2  0
  1  7  1  0
  4  8  1  0
  7  8  2  0
  1  9  1  0
  9 10  1  1
  2 10  1  0
  2 11  2  0
  2 12  1  0
 12 13  2  0
 13 14  1  0
 14 15  1  0
 14 16  2  0
 16 17  1  0
 12 18  1  0
 17 18  2  0
 17 19  1  0
  9 20  1  0
 20 21  1  6
 21 22  1  0
 22 23  2  0
 23 24  1  0
 21 25  1  0
 24 25  2  0
M  END
$$$$
