8C5D_GTB_B_302
     RDKit          3D

 30 30  0  0  0  0  0  0  0  0999 V2000
  -32.3171    5.5176   23.8813 N   0  0  0  0  0  0  0  0  0  0  0  0
  -31.3728    4.9017   22.9296 C   0  0  2  0  0  0  0  0  0  0  0  0
  -31.1380    3.4867   23.2928 C   0  0  0  0  0  0  0  0  0  0  0  0
  -31.6234    2.9085   24.2904 O   0  0  0  0  0  0  0  0  0  0  0  0
  -30.3079    2.6930   22.4766 O   0  0  0  0  0  0  0  0  0  0  0  0
  -30.0717    5.6444   22.9415 C   0  0  0  0  0  0  0  0  0  0  0  0
  -30.2586    7.1118   22.7105 C   0  0  0  0  0  0  0  0  0  0  0  0
  -29.6571    7.6077   21.4549 C   0  0  0  0  0  0  0  0  0  0  0  0
  -28.9054    6.9555   20.6991 O   0  0  0  0  0  0  0  0  0  0  0  0
  -29.9610    8.9425   21.0756 N   0  0  0  0  0  0  0  0  0  0  0  0
  -29.4734    9.5397   19.8265 C   0  0  2  0  0  0  0  0  0  0  0  0
  -28.9363   10.8760   19.9489 C   0  0  0  0  0  0  0  0  0  0  0  0
  -29.6699   11.7677   20.4996 O   0  0  0  0  0  0  0  0  0  0  0  0
  -30.5296    9.3409   18.7856 C   0  0  0  0  0  0  0  0  0  0  0  0
  -30.8094    7.6672   18.3293 S   0  0  0  0  0  0  0  0  0  0  0  0
  -27.6362   11.1975   19.4750 N   0  0  0  0  0  0  0  0  0  0  0  0
  -27.0549   12.5163   19.6535 C   0  0  0  0  0  0  0  0  0  0  0  0
  -26.6943   12.8138   21.0553 C   0  0  0  0  0  0  0  0  0  0  0  0
  -26.4914   14.0193   21.3627 O   0  0  0  0  0  0  0  0  0  0  0  0
  -26.5634   11.8734   22.0508 O   0  0  0  0  0  0  0  0  0  0  0  0
  -30.0705    7.2304   16.7558 C   0  0  0  0  0  0  0  0  0  0  0  0
  -30.3838    5.7615   16.5484 C   0  0  0  0  0  0  0  0  0  0  0  0
  -30.1491    5.1322   15.3589 C   0  0  0  0  0  0  0  0  0  0  0  0
  -30.4814    3.7854   15.2802 C   0  0  0  0  0  0  0  0  0  0  0  0
  -31.0207    3.1147   16.3454 C   0  0  0  0  0  0  0  0  0  0  0  0
  -31.3460    1.7273   16.2108 N   0  0  0  0  0  0  0  0  0  0  0  0
  -31.9369    1.0278   17.2441 O   0  0  0  0  0  0  0  0  0  0  0  0
  -31.1017    1.1128   15.1508 O   0  0  0  0  0  0  0  0  0  0  0  0
  -31.2665    3.7405   17.5652 C   0  0  0  0  0  0  0  0  0  0  0  0
  -30.9342    5.0854   17.6428 C   0  0  0  0  0  0  0  0  0  0  0  0
  2  1  1  1
  2  3  1  0
  3  4  2  0
  3  5  1  0
  2  6  1  0
  6  7  1  0
  7  8  1  0
  8  9  2  0
  8 10  1  0
 10 11  1  0
 11 12  1  0
 12 13  2  0
 11 14  1  6
 14 15  1  0
 12 16  1  0
 16 17  1  0
 17 18  1  0
 18 19  2  0
 18 20  1  0
 15 21  1  0
 21 22  1  0
 22 23  2  0
 23 24  1  0
 24 25  2  0
 25 26  1  0
 26 27  1  0
 26 28  2  0
 25 29  1  0
 22 30  1  0
 29 30  2  0
M  CHG  2  26   1  27  -1
M  END
$$$$
