6ZPB_3D1_A_201
     RDKit          3D

 18 20  0  0  0  0  0  0  0  0999 V2000
   -4.5196   17.5792   -3.9303 O   0  0  0  0  0  0  0  0  0  0  0  0
   -3.3948   18.4156   -4.1375 C   0  0  0  0  0  0  0  0  0  0  0  0
   -3.7998   19.6608   -4.8761 C   0  0  1  0  0  0  0  0  0  0  0  0
   -2.7687   20.6545   -4.6984 O   0  0  0  0  0  0  0  0  0  0  0  0
   -2.1771   20.9743   -5.9456 C   0  0  1  0  0  0  0  0  0  0  0  0
   -0.7487   21.1569   -5.7228 N   0  0  0  0  0  0  0  0  0  0  0  0
   -0.0922   22.3478   -5.5168 C   0  0  0  0  0  0  0  0  0  0  0  0
   -0.5974   23.5835   -5.6030 N   0  0  0  0  0  0  0  0  0  0  0  0
    0.3243   24.5026   -5.2976 C   0  0  0  0  0  0  0  0  0  0  0  0
    1.6080   24.3229   -4.9527 N   0  0  0  0  0  0  0  0  0  0  0  0
    2.0930   23.0608   -4.8853 C   0  0  0  0  0  0  0  0  0  0  0  0
    3.3816   22.8866   -4.5539 N   0  0  0  0  0  0  0  0  0  0  0  0
    1.2101   22.0053   -5.1798 C   0  0  0  0  0  0  0  0  0  0  0  0
    1.3773   20.6284   -5.2056 N   0  0  0  0  0  0  0  0  0  0  0  0
    0.1903   20.1777   -5.5342 C   0  0  0  0  0  0  0  0  0  0  0  0
   -2.5650   19.8485   -6.8964 C   0  0  0  0  0  0  0  0  0  0  0  0
   -3.9518   19.4833   -6.3898 C   0  0  2  0  0  0  0  0  0  0  0  0
   -4.9079   20.4216   -6.8859 O   0  0  0  0  0  0  0  0  0  0  0  0
  1  2  1  0
  3  2  1  1
  3  4  1  0
  4  5  1  0
  5  6  1  1
  6  7  1  0
  7  8  2  0
  8  9  1  0
  9 10  2  0
 10 11  1  0
 11 12  1  0
  7 13  1  0
 11 13  2  0
 13 14  1  0
  6 15  1  0
 14 15  2  0
  5 16  1  0
  3 17  1  0
 16 17  1  0
 17 18  1  6
M  END
