7QPP_VDX_A_501
     RDKit          3D

 30 32  0  0  0  0  0  0  0  0999 V2000
   16.5132   17.1641   35.2383 O   0  0  0  0  0  0  0  0  0  0  0  0
    4.7082   25.9101   34.7047 O   0  0  0  0  0  0  0  0  0  0  0  0
   13.6894   17.0997   34.9739 C   0  0  1  0  0  0  0  0  0  0  0  0
   14.6508   16.6167   33.9136 C   0  0  0  0  0  0  0  0  0  0  0  0
   15.9888   17.3189   33.9663 C   0  0  1  0  0  0  0  0  0  0  0  0
   15.8678   18.7722   33.5422 C   0  0  0  0  0  0  0  0  0  0  0  0
   14.5433   19.3231   34.0037 C   0  0  0  0  0  0  0  0  0  0  0  0
   14.0079   20.4065   33.4977 C   0  0  0  0  0  0  0  0  0  0  0  0
   13.2569   21.4203   34.1991 C   0  0  0  0  0  0  0  0  0  0  0  0
   13.0671   22.6392   33.6476 C   0  0  0  0  0  0  0  0  0  0  0  0
   13.4110   22.7977   32.2319 C   0  0  0  0  0  0  0  0  0  0  0  0
   13.8786   18.5937   35.0732 C   0  0  0  0  0  0  0  0  0  0  0  0
   13.1439   24.1086   31.6281 C   0  0  0  0  0  0  0  0  0  0  0  0
   12.7050   25.2208   32.5122 C   0  0  0  0  0  0  0  0  0  0  0  0
   11.6862   24.6792   33.4839 C   0  0  1  0  0  0  0  0  0  0  0  0
   12.5412   23.7803   34.3985 C   0  0  1  0  0  0  0  0  0  0  0  0
   11.5244   23.4527   35.4318 C   0  0  0  0  0  0  0  0  0  0  0  0
   11.0351   24.8477   35.7704 C   0  0  0  0  0  0  0  0  0  0  0  0
   11.1955   25.6591   34.4757 C   0  0  2  0  0  0  0  0  0  0  0  0
   10.6483   23.8407   32.8104 C   0  0  0  0  0  0  0  0  0  0  0  0
   13.4310   19.2278   36.1399 C   0  0  0  0  0  0  0  0  0  0  0  0
    9.8483   26.2755   34.1885 C   0  0  2  0  0  0  0  0  0  0  0  0
    9.5315   27.4149   35.1001 C   0  0  0  0  0  0  0  0  0  0  0  0
    8.8296   25.1614   34.4644 C   0  0  0  0  0  0  0  0  0  0  0  0
    7.4289   25.5398   34.1236 C   0  0  0  0  0  0  0  0  0  0  0  0
    6.4964   24.3903   34.4776 C   0  0  0  0  0  0  0  0  0  0  0  0
    5.0705   24.7007   34.1180 C   0  0  1  0  0  0  0  0  0  0  0  0
    4.1449   23.6281   34.6573 C   0  0  0  0  0  0  0  0  0  0  0  0
    4.8827   24.8621   32.6232 C   0  0  0  0  0  0  0  0  0  0  0  0
   12.3995   16.9157   34.4823 O   0  0  0  0  0  0  0  0  0  0  0  0
  4  3  1  6
  5  1  1  1
  4  5  1  0
  5  6  1  0
  6  7  1  6
  7  8  2  0
  8  9  1  0
  9 10  2  0
 11 10  1  6
  3 12  1  0
  7 12  1  0
 13 11  1  1
 14 13  1  1
 14 15  1  0
 16 10  1  6
 15 16  1  0
 17 16  1  1
 18 17  1  1
 15 19  1  0
 19 18  1  1
 15 20  1  6
 12 21  2  0
 19 22  1  0
 22 23  1  1
 22 24  1  0
 24 25  1  1
 26 25  1  6
 27  2  1  1
 26 27  1  0
 28 27  1  1
 29 27  1  6
  3 30  1  6
M  END
$$$$
