7AS1_21G_A_501
     RDKit          3D

 29 33  0  0  0  0  0  0  0  0999 V2000
   -3.7574    4.1602    3.2121 C   0  0  0  0  0  0  0  0  0  0  0  0
   -3.4454    3.0536    3.9623 C   0  0  0  0  0  0  0  0  0  0  0  0
   -4.4334    2.4061    4.7345 C   0  0  0  0  0  0  0  0  0  0  0  0
   -6.0053    3.9230    4.0781 C   0  0  0  0  0  0  0  0  0  0  0  0
   -5.0835    4.6266    3.2863 C   0  0  0  0  0  0  0  0  0  0  0  0
   -5.8400    5.7122    2.6857 C   0  0  0  0  0  0  0  0  0  0  0  0
   -5.7014    2.8136    4.7971 N   0  0  0  0  0  0  0  0  0  0  0  0
   -7.1300    5.5732    3.1690 C   0  0  0  0  0  0  0  0  0  0  0  0
   -7.1980    4.5135    3.9971 N   0  0  0  0  0  0  0  0  0  0  0  0
   -5.3551    6.6702    1.7440 C   0  0  0  0  0  0  0  0  0  0  0  0
   -6.1861    7.6282    1.2940 N   0  0  0  0  0  0  0  0  0  0  0  0
   -5.7174    8.5380    0.4173 C   0  0  0  0  0  0  0  0  0  0  0  0
   -4.4139    8.5119    0.0226 C   0  0  0  0  0  0  0  0  0  0  0  0
   -3.5594    7.5267    0.5183 C   0  0  0  0  0  0  0  0  0  0  0  0
   -4.0608    6.6634    1.4131 N   0  0  0  0  0  0  0  0  0  0  0  0
   -2.2866    7.4235    0.1553 N   0  0  0  0  0  0  0  0  0  0  0  0
   -1.2901    6.5672    0.8177 C   0  0  2  0  0  0  0  0  0  0  0  0
    0.0076    7.3189    1.0863 C   0  0  2  0  0  0  0  0  0  0  0  0
    1.1697    6.4748    0.5510 C   0  0  2  0  0  0  0  0  0  0  0  0
    1.0387    6.3803   -0.9595 C   0  0  0  0  0  0  0  0  0  0  0  0
   -0.3207    5.8599   -1.3432 C   0  0  0  0  0  0  0  0  0  0  0  0
   -1.0185    5.3993   -0.0711 C   0  0  1  0  0  0  0  0  0  0  0  0
   -0.1380    4.4151    0.6942 C   0  0  0  0  0  0  0  0  0  0  0  0
    1.1274    5.0582    1.1345 C   0  0  0  0  0  0  0  0  0  0  0  0
    0.3050    7.6851    2.4827 C   0  0  0  0  0  0  0  0  0  0  0  0
   -0.4222    8.3268    3.1777 O   0  0  0  0  0  0  0  0  0  0  0  0
    1.4960    7.2677    2.8623 O   0  0  0  0  0  0  0  0  0  0  0  0
   -4.0011    9.3896   -0.9255 F   0  0  0  0  0  0  0  0  0  0  0  0
   -2.1991    2.5800    3.9753 F   0  0  0  0  0  0  0  0  0  0  0  0
  1  2  2  0
  2  3  1  0
  4  5  2  0
  1  5  1  0
  5  6  1  0
  4  7  1  0
  3  7  2  0
  6  8  2  0
  4  9  1  0
  8  9  1  0
  6 10  1  0
 10 11  2  0
 11 12  1  0
 12 13  2  0
 13 14  1  0
 10 15  1  0
 14 15  2  0
 14 16  1  0
 17 16  1  6
 17 18  1  0
 18 19  1  0
 19 20  1  6
 20 21  1  0
 17 22  1  0
 22 21  1  6
 22 23  1  0
 23 24  1  0
 19 24  1  0
 18 25  1  1
 25 26  1  0
 25 27  2  0
 13 28  1  0
  2 29  1  0
M  END
