2BM2_PM2_B_3211
     RDKit          3D

 59 62  0  0  0  0  0  0  0  0999 V2000
   -2.8604   -0.3532    2.5597 C   0  0  0  0  0  0  0  0  0  0  0  0
   -2.0376   -1.0501    3.4670 C   0  0  0  0  0  0  0  0  0  0  0  0
   -3.9807    0.3364    3.0651 C   0  0  0  0  0  0  0  0  0  0  0  0
   -2.3223   -1.0557    4.8425 C   0  0  0  0  0  0  0  0  0  0  0  0
   -4.2596    0.3420    4.4342 C   0  0  0  0  0  0  0  0  0  0  0  0
   -3.4305   -0.3447    5.3215 C   0  0  0  0  0  0  0  0  0  0  0  0
   -1.4088   -1.7667    5.8038 C   0  0  0  0  0  0  0  0  0  0  0  0
   -0.4020   -0.8410    6.3087 N   0  0  0  0  0  0  0  0  0  0  0  0
   -1.2091    0.2277    0.6608 C   0  0  0  0  0  0  0  0  0  0  0  0
   -0.0793   -0.8112    0.5921 C   0  0  0  0  0  0  0  0  0  0  0  0
   -0.0592   -2.3121   -1.4364 C   0  0  0  0  0  0  0  0  0  0  0  0
   -0.8793   -2.6356   -2.3387 O   0  0  0  0  0  0  0  0  0  0  0  0
   -2.5968   -0.3480    1.0553 C   0  0  0  0  0  0  0  0  0  0  0  0
   -0.5389   -2.0130   -0.1111 N   0  0  0  0  0  0  0  0  0  0  0  0
   -1.7325   -2.6805    0.4092 C   0  0  0  0  0  0  0  0  0  0  0  0
   -2.9139   -1.7078    0.3875 C   0  0  0  0  0  0  0  0  0  0  0  0
    1.3796   -2.2292   -1.7630 C   0  0  0  0  0  0  0  0  0  0  0  0
    1.7949   -1.8123   -3.0344 C   0  0  0  0  0  0  0  0  0  0  0  0
    2.3562   -2.5322   -0.8015 C   0  0  0  0  0  0  0  0  0  0  0  0
    3.1599   -1.6543   -3.3159 C   0  0  0  0  0  0  0  0  0  0  0  0
    3.6765   -2.3955   -1.0990 N   0  0  0  0  0  0  0  0  0  0  0  0
    3.6007   -1.0309   -4.6161 C   0  0  0  0  0  0  0  0  0  0  0  0
    4.0954   -1.9608   -2.3169 C   0  0  0  0  0  0  0  0  0  0  0  0
    3.7636    0.4921   -4.4811 C   0  0  0  0  0  0  0  0  0  0  0  0
    2.4671    1.1630   -4.0954 C   0  0  0  0  0  0  0  0  0  0  0  0
    2.1957    1.4622   -2.7480 C   0  0  0  0  0  0  0  0  0  0  0  0
    1.4796    1.4045   -5.0655 C   0  0  0  0  0  0  0  0  0  0  0  0
    0.9556    1.9928   -2.3793 C   0  0  0  0  0  0  0  0  0  0  0  0
    0.2429    1.9417   -4.6932 C   0  0  0  0  0  0  0  0  0  0  0  0
   -0.0199    2.2325   -3.3510 C   0  0  0  0  0  0  0  0  0  0  0  0
   -1.1780   -1.5960    3.1242 H   0  0  0  0  0  0  0  0  0  0  0  0
   -4.6448    0.8750    2.3999 H   0  0  0  0  0  0  0  0  0  0  0  0
   -5.1199    0.8829    4.8082 H   0  0  0  0  0  0  0  0  0  0  0  0
   -3.6536   -0.3233    6.3816 H   0  0  0  0  0  0  0  0  0  0  0  0
   -2.0005   -2.1691    6.6555 H   0  0  0  0  0  0  0  0  0  0  0  0
   -0.9149   -2.6310    5.3064 H   0  0  0  0  0  0  0  0  0  0  0  0
    0.1604   -1.3451    7.0331 H   0  0  0  0  0  0  0  0  0  0  0  0
    0.2558   -0.6150    5.5262 H   0  0  0  0  0  0  0  0  0  0  0  0
   -0.9194    1.0446    1.3570 H   0  0  0  0  0  0  0  0  0  0  0  0
   -1.2992    0.6845   -0.3510 H   0  0  0  0  0  0  0  0  0  0  0  0
    0.2777   -1.0822    1.6036 H   0  0  0  0  0  0  0  0  0  0  0  0
    0.7875   -0.3480    0.0721 H   0  0  0  0  0  0  0  0  0  0  0  0
   -3.3283    0.3645    0.6080 H   0  0  0  0  0  0  0  0  0  0  0  0
   -1.9800   -3.5791   -0.1962 H   0  0  0  0  0  0  0  0  0  0  0  0
   -1.5429   -3.0382    1.4407 H   0  0  0  0  0  0  0  0  0  0  0  0
   -3.7964   -2.1807    0.8727 H   0  0  0  0  0  0  0  0  0  0  0  0
   -3.1847   -1.5254   -0.6771 H   0  0  0  0  0  0  0  0  0  0  0  0
    1.0576   -1.5481   -3.7844 H   0  0  0  0  0  0  0  0  0  0  0  0
    2.0704   -2.8725    0.1859 H   0  0  0  0  0  0  0  0  0  0  0  0
    2.8673   -1.2594   -5.4214 H   0  0  0  0  0  0  0  0  0  0  0  0
    4.5723   -1.4722   -4.9302 H   0  0  0  0  0  0  0  0  0  0  0  0
    5.1553   -1.8337   -2.4992 H   0  0  0  0  0  0  0  0  0  0  0  0
    4.5540    0.7168   -3.7305 H   0  0  0  0  0  0  0  0  0  0  0  0
    4.1158    0.9036   -5.4520 H   0  0  0  0  0  0  0  0  0  0  0  0
    2.9344    1.2603   -1.9815 H   0  0  0  0  0  0  0  0  0  0  0  0
    1.6631    1.1624   -6.1051 H   0  0  0  0  0  0  0  0  0  0  0  0
    0.7484    2.2096   -1.3389 H   0  0  0  0  0  0  0  0  0  0  0  0
   -0.5158    2.1229   -5.4437 H   0  0  0  0  0  0  0  0  0  0  0  0
   -0.9809    2.6388   -3.0637 H   0  0  0  0  0  0  0  0  0  0  0  0
  1  2  2  0
  1  3  1  0
  2  4  1  0
  3  5  2  0
  4  6  2  0
  5  6  1  0
  4  7  1  0
  7  8  1  0
  9 10  1  0
 11 12  2  0
  1 13  1  0
  9 13  1  0
 10 14  1  0
 11 14  1  0
 14 15  1  0
 13 16  1  0
 15 16  1  0
 11 17  1  0
 17 18  2  0
 17 19  1  0
 18 20  1  0
 19 21  2  0
 20 22  1  0
 20 23  2  0
 21 23  1  0
 22 24  1  0
 24 25  1  0
 25 26  2  0
 25 27  1  0
 26 28  1  0
 27 29  2  0
 28 30  2  0
 29 30  1  0
  2 31  1  0
  3 32  1  0
  5 33  1  0
  6 34  1  0
  7 35  1  0
  7 36  1  0
  8 37  1  0
  8 38  1  0
  9 39  1  0
  9 40  1  0
 10 41  1  0
 10 42  1  0
 13 43  1  0
 15 44  1  0
 15 45  1  0
 16 46  1  0
 16 47  1  0
 18 48  1  0
 19 49  1  0
 22 50  1  0
 22 51  1  0
 23 52  1  0
 24 53  1  0
 24 54  1  0
 26 55  1  0
 27 56  1  0
 28 57  1  0
 29 58  1  0
 30 59  1  0
M  END
