7E4L_MDN_A_301
     RDKit          3D

  9  8  0  0  0  0  0  0  0  0999 V2000
  -26.9145  -10.9408  -30.5710 O   0  0  0  0  0  0  0  0  0  0  0  0
  -26.3309  -11.1237  -28.9859 P   0  0  2  0  0  5  0  0  0  0  0  0
  -25.6615  -12.4861  -28.8651 O   0  0  0  0  0  0  0  0  0  0  0  0
  -27.5972  -11.1127  -27.8853 O   0  0  0  0  0  0  0  0  0  0  0  0
  -25.0637   -9.9022  -28.6071 C   0  0  0  0  0  0  0  0  0  0  0  0
  -23.5692  -10.0871  -29.5848 P   0  0  1  0  0  5  0  0  0  0  0  0
  -23.6569  -11.3777  -30.3864 O   0  0  0  0  0  0  0  0  0  0  0  0
  -23.4814   -8.8386  -30.7394 O   0  0  0  0  0  0  0  0  0  0  0  0
  -22.1644  -10.0553  -28.6670 O   0  0  0  0  0  0  0  0  0  0  0  0
  2  1  1  6
  2  3  2  0
  2  4  1  0
  5  2  1  6
  5  6  1  0
  6  7  2  0
  6  8  1  6
  6  9  1  0
M  END
$$$$
