1HQ2_PH2_A_181
     RDKit          3D

 14 15  0  0  0  0  0  0  0  0999 V2000
   -8.3797    0.7800   19.1943 N   0  0  0  0  0  0  0  0  0  0  0  0
   -9.6532    0.9209   19.3249 C   0  0  0  0  0  0  0  0  0  0  0  0
  -10.5070    0.8682   17.9591 C   0  0  0  0  0  0  0  0  0  0  0  0
   -9.8179    0.6841   16.8153 N   0  0  0  0  0  0  0  0  0  0  0  0
   -7.8658    0.3714   15.6484 N   0  0  0  0  0  0  0  0  0  0  0  0
   -6.4937    0.2207   15.5047 C   0  0  0  0  0  0  0  0  0  0  0  0
   -5.9601    0.0574   14.4150 N   0  0  0  0  0  0  0  0  0  0  0  0
   -5.8177    0.2730   16.6913 N   0  0  0  0  0  0  0  0  0  0  0  0
   -6.2872    0.4410   17.8923 C   0  0  0  0  0  0  0  0  0  0  0  0
   -5.6101    0.4771   18.9211 O   0  0  0  0  0  0  0  0  0  0  0  0
   -7.6935    0.5851   17.9280 C   0  0  0  0  0  0  0  0  0  0  0  0
   -8.4395    0.5402   16.7552 C   0  0  0  0  0  0  0  0  0  0  0  0
  -10.4230    1.1190   20.5344 C   0  0  0  0  0  0  0  0  0  0  0  0
   -9.5732    1.2988   21.6568 O   0  0  0  0  0  0  0  0  0  0  0  0
  1  2  2  0
  2  3  1  0
  3  4  1  0
  5  6  2  0
  6  7  1  0
  6  8  1  0
  8  9  1  0
  9 10  2  0
  1 11  1  0
  9 11  1  0
  4 12  1  0
  5 12  1  0
 11 12  2  0
  2 13  1  0
 13 14  1  0
M  END
