6ZAE_ACV_A_403
     RDKit          3D

 24 23  0  0  0  0  0  0  0  0999 V2000
   69.4005   82.1794   -2.6185 C   0  0  0  0  0  0  0  0  0  0  0  0
   68.6863   82.8688   -1.5021 C   0  0  2  0  0  0  0  0  0  0  0  0
   67.3923   82.1272   -1.2212 C   0  0  0  0  0  0  0  0  0  0  0  0
   66.7098   82.6630    0.0207 C   0  0  0  0  0  0  0  0  0  0  0  0
   65.4554   81.8599    0.3157 C   0  0  0  0  0  0  0  0  0  0  0  0
   65.0210   82.2269    1.6943 C   0  0  0  0  0  0  0  0  0  0  0  0
   64.3415   81.2985    2.5360 N   0  0  0  0  0  0  0  0  0  0  0  0
   64.0459   81.6799    3.9226 C   0  0  2  0  0  0  0  0  0  0  0  0
   65.2567   81.7465    4.7428 C   0  0  0  0  0  0  0  0  0  0  0  0
   68.3264   84.2270   -1.9175 N   0  0  0  0  0  0  0  0  0  0  0  0
   65.2847   83.4091    2.0870 O   0  0  0  0  0  0  0  0  0  0  0  0
   63.0165   80.7115    4.4987 C   0  0  0  0  0  0  0  0  0  0  0  0
   61.3940   81.0323    3.8069 S   0  0  0  0  0  0  0  0  0  0  0  0
   66.0551   80.7544    4.8557 O   0  0  0  0  0  0  0  0  0  0  0  0
   69.9828   80.9198   -2.4579 O   0  0  0  0  0  0  0  0  0  0  0  0
   69.4973   82.7167   -3.7386 O   0  0  0  0  0  0  0  0  0  0  0  0
   65.5741   82.9407    5.4440 N   0  0  0  0  0  0  0  0  0  0  0  0
   66.7846   83.0648    6.2302 C   0  0  1  0  0  0  0  0  0  0  0  0
   67.9281   83.0814    5.2812 C   0  0  0  0  0  0  0  0  0  0  0  0
   66.8244   84.3215    7.0407 C   0  0  1  0  0  0  0  0  0  0  0  0
   65.9148   84.2735    8.2431 C   0  0  0  0  0  0  0  0  0  0  0  0
   68.2285   84.4968    7.5788 C   0  0  0  0  0  0  0  0  0  0  0  0
   67.9401   83.8133    4.2410 O   0  0  0  0  0  0  0  0  0  0  0  0
   69.0622   82.2955    5.4697 O   0  0  0  0  0  0  0  0  0  0  0  0
  1  2  1  0
  2  3  1  0
  3  4  1  0
  4  5  1  0
  5  6  1  0
  6  7  1  0
  7  8  1  0
  8  9  1  0
  2 10  1  6
  6 11  2  0
  8 12  1  1
 12 13  1  0
  9 14  2  0
  1 15  1  0
  1 16  2  0
  9 17  1  0
 18 17  1  6
 18 19  1  0
 18 20  1  0
 20 21  1  1
 20 22  1  0
 19 23  2  0
 19 24  1  0
M  END
$$$$
