7WCF_ACP_A_401
     RDKit          3D

 31 33  0  0  0  0  0  0  0  0999 V2000
    1.9833  -19.2414  -22.8525 P   0  0  2  0  0  5  0  0  0  0  0  0
    2.7632  -18.9748  -24.1349 O   0  0  0  0  0  0  0  0  0  0  0  0
    0.3746  -18.8286  -23.0676 O   0  0  0  0  0  0  0  0  0  0  0  0
    2.6998  -18.4219  -21.5677 O   0  0  0  0  0  0  0  0  0  0  0  0
    3.7071  -21.2075  -21.5703 P   0  0  2  0  0  5  0  0  0  0  0  0
    3.5236  -21.9478  -20.2775 O   0  0  0  0  0  0  0  0  0  0  0  0
    4.3806  -19.6788  -21.2629 O   0  0  0  0  0  0  0  0  0  0  0  0
    2.1561  -21.0299  -22.4981 C   0  0  0  0  0  0  0  0  0  0  0  0
    5.7524  -20.9430  -23.4613 P   0  0  2  0  0  5  0  0  0  0  0  0
    5.0143  -20.3095  -24.5929 O   0  0  0  0  0  0  0  0  0  0  0  0
    7.0883  -21.8304  -24.0354 O   0  0  0  0  0  0  0  0  0  0  0  0
    4.7870  -22.0459  -22.5934 O   0  0  0  0  0  0  0  0  0  0  0  0
    6.3008  -19.7920  -22.3709 O   0  0  0  0  0  0  0  0  0  0  0  0
    6.9861  -18.7500  -23.0084 C   0  0  0  0  0  0  0  0  0  0  0  0
    8.4055  -18.8268  -22.5521 C   0  0  1  0  0  0  0  0  0  0  0  0
    8.7157  -20.0385  -21.8967 O   0  0  0  0  0  0  0  0  0  0  0  0
    9.3340  -18.9377  -23.7522 C   0  0  1  0  0  0  0  0  0  0  0  0
    9.5885  -17.6775  -24.2637 O   0  0  0  0  0  0  0  0  0  0  0  0
   10.5553  -19.5718  -23.1044 C   0  0  1  0  0  0  0  0  0  0  0  0
   11.5680  -18.6161  -23.1487 O   0  0  0  0  0  0  0  0  0  0  0  0
   10.0869  -19.8258  -21.6754 C   0  0  2  0  0  0  0  0  0  0  0  0
   10.7330  -20.9819  -21.0840 N   0  0  0  0  0  0  0  0  0  0  0  0
   10.0656  -22.0788  -20.6944 C   0  0  0  0  0  0  0  0  0  0  0  0
   10.9480  -22.9718  -20.1864 N   0  0  0  0  0  0  0  0  0  0  0  0
   12.1564  -22.4062  -20.2715 C   0  0  0  0  0  0  0  0  0  0  0  0
   13.4406  -22.8015  -19.9269 C   0  0  0  0  0  0  0  0  0  0  0  0
   13.6578  -24.0790  -19.3400 N   0  0  0  0  0  0  0  0  0  0  0  0
   14.4734  -21.9692  -20.1521 N   0  0  0  0  0  0  0  0  0  0  0  0
   14.3027  -20.7440  -20.7099 C   0  0  0  0  0  0  0  0  0  0  0  0
   13.0751  -20.3368  -21.0521 N   0  0  0  0  0  0  0  0  0  0  0  0
   12.0454  -21.1454  -20.8369 C   0  0  0  0  0  0  0  0  0  0  0  0
  1  2  2  0
  1  3  1  6
  1  4  1  0
  5  6  2  0
  5  7  1  1
  8  1  1  6
  5  8  1  0
  9 10  2  0
  9 11  1  6
  5 12  1  0
  9 12  1  0
  9 13  1  0
 14 13  1  1
 15 14  1  0
 15 16  1  1
 15 17  1  0
 17 18  1  1
 17 19  1  0
 19 20  1  1
 16 21  1  0
 19 21  1  0
 21 22  1  6
 22 23  1  0
 23 24  2  0
 24 25  1  0
 25 26  2  0
 26 27  1  0
 26 28  1  0
 28 29  2  0
 29 30  1  0
 22 31  1  0
 25 31  1  0
 30 31  2  0
M  END
$$$$
