7XRL_FWK_A_605
     RDKit          3D

 19 21  0  0  0  0  0  0  0  0999 V2000
    1.2492   -1.7142   12.8905 C   0  0  0  0  0  0  0  0  0  0  0  0
    1.8885   -3.0876   12.9389 C   0  0  1  0  0  0  0  0  0  0  0  0
    2.0023   -3.4958   14.3078 O   0  0  0  0  0  0  0  0  0  0  0  0
    1.0704   -4.1645   12.2666 C   0  0  1  0  0  0  0  0  0  0  0  0
    1.3800   -4.2448   10.8649 O   0  0  0  0  0  0  0  0  0  0  0  0
    1.5011   -5.4047   13.0262 C   0  0  1  0  0  0  0  0  0  0  0  0
    2.6682   -5.9464   12.4153 O   0  0  0  0  0  0  0  0  0  0  0  0
    1.9193   -4.9238   14.4092 C   0  0  2  0  0  0  0  0  0  0  0  0
    0.9158   -5.1422   15.4772 N   0  0  0  0  0  0  0  0  0  0  0  0
    1.2415   -5.2023   16.7863 C   0  0  0  0  0  0  0  0  0  0  0  0
    0.1401   -5.3436   17.5606 N   0  0  0  0  0  0  0  0  0  0  0  0
   -0.9213   -5.3561   16.7434 C   0  0  0  0  0  0  0  0  0  0  0  0
   -0.4124   -5.2114   15.3623 C   0  0  0  0  0  0  0  0  0  0  0  0
   -1.3064   -5.2057   14.3402 N   0  0  0  0  0  0  0  0  0  0  0  0
   -2.6247   -5.3196   14.5764 C   0  0  0  0  0  0  0  0  0  0  0  0
   -3.1398   -5.4640   15.8057 N   0  0  0  0  0  0  0  0  0  0  0  0
   -2.3766   -5.4892   16.9197 C   0  0  0  0  0  0  0  0  0  0  0  0
   -2.9237   -5.6258   18.1606 N   0  0  0  0  0  0  0  0  0  0  0  0
    2.3774   -0.7095   13.0200 C   0  0  0  0  0  0  0  0  0  0  0  0
  2  1  1  1
  2  3  1  0
  2  4  1  0
  4  5  1  6
  4  6  1  0
  6  7  1  6
  6  8  1  0
  3  8  1  0
  8  9  1  1
  9 10  1  0
 10 11  2  0
 11 12  1  0
  9 13  1  0
 12 13  2  0
 13 14  1  0
 14 15  2  0
 15 16  1  0
 12 17  1  0
 16 17  2  0
 17 18  1  0
  1 19  1  0
M  END
