6YDY_K73_A_302
     RDKit          3D

 28 30  0  0  0  0  0  0  0  0999 V2000
   20.3404   -1.4099    2.4775 N   0  0  0  0  0  0  0  0  0  0  0  0
   21.1790   -0.3971    1.7964 C   0  0  0  0  0  0  0  0  0  0  0  0
   26.0149    2.1743    6.5000 O   0  0  0  0  0  0  0  0  0  0  0  0
   22.5244   -0.1517    2.4486 C   0  0  0  0  0  0  0  0  0  0  0  0
   23.8274    5.1133    6.6539 C   0  0  0  0  0  0  0  0  0  0  0  0
   23.1707    3.3364    4.9740 C   0  0  0  0  0  0  0  0  0  0  0  0
   21.6968    3.4705    5.3468 C   0  0  1  0  0  0  0  0  0  0  0  0
   20.9346    4.1718    4.2176 C   0  0  0  0  0  0  0  0  0  0  0  0
   21.3060    5.6126    3.9665 C   0  0  0  0  0  0  0  0  0  0  0  0
   20.8538    6.6255    4.8039 C   0  0  0  0  0  0  0  0  0  0  0  0
   21.1479    7.9506    4.5325 C   0  0  0  0  0  0  0  0  0  0  0  0
   21.9115    8.2798    3.4335 C   0  0  0  0  0  0  0  0  0  0  0  0
   22.3785    7.2843    2.6075 C   0  0  0  0  0  0  0  0  0  0  0  0
   22.0752    5.9608    2.8705 C   0  0  0  0  0  0  0  0  0  0  0  0
   22.7370    0.9202    3.3012 C   0  0  0  0  0  0  0  0  0  0  0  0
   24.8551   -0.7267    2.6951 C   0  0  0  0  0  0  0  0  0  0  0  0
   23.6023   -0.9796    2.1622 C   0  0  0  0  0  0  0  0  0  0  0  0
   23.9892    1.1663    3.8414 C   0  0  0  0  0  0  0  0  0  0  0  0
   25.0707    0.3558    3.5335 C   0  0  0  0  0  0  0  0  0  0  0  0
   26.4471    0.6832    4.0642 C   0  0  0  0  0  0  0  0  0  0  0  0
   26.0583    2.6972    5.3894 C   0  0  0  0  0  0  0  0  0  0  0  0
   25.4659    4.0855    5.1597 C   0  0  2  0  0  0  0  0  0  0  0  0
   26.1427    5.1361    6.0573 C   0  0  0  0  0  0  0  0  0  0  0  0
   25.0074    6.0429    6.5151 C   0  0  0  0  0  0  0  0  0  0  0  0
   26.6052    2.1038    4.3333 N   0  0  0  0  0  0  0  0  0  0  0  0
   24.0592    4.1395    5.5741 N   0  0  0  0  0  0  0  0  0  0  0  0
   21.2356    2.0748    5.4762 N   0  0  0  0  0  0  0  0  0  0  0  0
   23.5151    2.5286    4.1311 O   0  0  0  0  0  0  0  0  0  0  0  0
  1  2  1  0
  2  4  1  0
  6  7  1  0
  7  8  1  0
  8  9  1  0
  9 10  2  0
 10 11  1  0
 11 12  2  0
 12 13  1  0
  9 14  1  0
 13 14  2  0
  4 15  2  0
 16 17  2  0
  4 17  1  0
 15 18  1  0
 18 19  2  0
 16 19  1  0
 19 20  1  0
  3 21  2  0
 22 21  1  1
 22 23  1  0
 23 24  1  0
  5 24  1  0
 20 25  1  0
 21 25  1  0
  5 26  1  0
 22 26  1  0
  6 26  1  0
  7 27  1  6
  6 28  2  0
M  END
