7UQ3_O2U_A_502
     RDKit          3D

 12 12  0  0  0  0  0  0  0  0999 V2000
    8.9137  141.5430  102.0739 C   0  0  0  0  0  0  0  0  0  0  0  0
    8.6466  142.0910  100.7374 C   0  0  2  0  0  0  0  0  0  0  0  0
    7.2204  142.0548  100.3062 C   0  0  0  0  0  0  0  0  0  0  0  0
    6.9157  142.8356   99.0950 C   0  0  0  0  0  0  0  0  0  0  0  0
    9.4326  141.1784   99.8288 C   0  0  0  0  0  0  0  0  0  0  0  0
   10.4480  140.5271  100.6900 C   0  0  0  0  0  0  0  0  0  0  0  0
   10.2264  140.9607  102.0268 N   0  0  0  0  0  0  0  0  0  0  0  0
   11.1207  140.8281  103.0380 O   0  0  0  0  0  0  0  0  0  0  0  0
    5.6288  143.3165   98.8260 O   0  0  0  0  0  0  0  0  0  0  0  0
    7.7974  143.1083   98.2423 O   0  0  0  0  0  0  0  0  0  0  0  0
   11.3192  139.7397  100.2342 O   0  0  0  0  0  0  0  0  0  0  0  0
    8.1992  141.5345  103.1202 O   0  0  0  0  0  0  0  0  0  0  0  0
  2  1  1  1
  2  3  1  0
  3  4  1  6
  2  5  1  0
  5  6  1  1
  6  7  1  0
  1  7  1  0
  7  8  1  0
  4  9  1  0
  4 10  2  0
  6 11  2  0
  1 12  2  0
M  END
$$$$
