7P2I_MFU_C_102
     RDKit          3D

 12 12  0  0  0  0  0  0  0  0999 V2000
    1.2402   16.0108   43.2772 C   0  0  2  0  0  0  0  0  0  0  0  0
    1.2446   17.5226   43.3871 C   0  0  2  0  0  0  0  0  0  0  0  0
    0.7561   17.7788   44.8159 C   0  0  1  0  0  0  0  0  0  0  0  0
    1.8936   17.2975   45.6879 C   0  0  1  0  0  0  0  0  0  0  0  0
    2.0546   15.8165   45.4394 C   0  0  2  0  0  0  0  0  0  0  0  0
    3.3220   15.3924   46.1619 C   0  0  0  0  0  0  0  0  0  0  0  0
   -0.0469   15.6037   43.6887 O   0  0  0  0  0  0  0  0  0  0  0  0
    0.4461   18.1245   42.4412 O   0  0  0  0  0  0  0  0  0  0  0  0
    0.4220   19.0957   45.0162 O   0  0  0  0  0  0  0  0  0  0  0  0
    3.0719   17.9180   45.3257 O   0  0  0  0  0  0  0  0  0  0  0  0
    2.2207   15.5011   44.1075 O   0  0  0  0  0  0  0  0  0  0  0  0
   -0.2637   14.2645   43.3788 C   0  0  0  0  0  0  0  0  0  0  0  0
  1  2  1  0
  2  3  1  0
  3  4  1  0
  4  5  1  0
  5  6  1  1
  1  7  1  1
  2  8  1  6
  3  9  1  6
  4 10  1  6
  1 11  1  0
  5 11  1  0
  7 12  1  0
M  END
$$$$
