7PIH_7QW_A_401
     RDKit          3D

 24 27  0  0  0  0  0  0  0  0999 V2000
    6.6309  -39.8297   -7.8552 O   0  0  0  0  0  0  0  0  0  0  0  0
    6.2237  -40.3629   -9.0609 C   0  0  0  0  0  0  0  0  0  0  0  0
    4.9607  -40.8066   -9.1790 N   0  0  0  0  0  0  0  0  0  0  0  0
    4.5595  -41.3311  -10.3649 C   0  0  0  0  0  0  0  0  0  0  0  0
    5.3809  -41.4324  -11.4557 C   0  0  0  0  0  0  0  0  0  0  0  0
    6.6858  -40.9820  -11.3578 C   0  0  0  0  0  0  0  0  0  0  0  0
    7.0734  -40.4524  -10.1436 C   0  0  0  0  0  0  0  0  0  0  0  0
    8.3468  -39.9952   -9.9951 C   0  0  0  0  0  0  0  0  0  0  0  0
    9.2311  -40.0657  -11.0538 C   0  0  0  0  0  0  0  0  0  0  0  0
    7.5401  -41.0697  -12.4392 C   0  0  0  0  0  0  0  0  0  0  0  0
    8.8307  -40.5984  -12.2649 C   0  0  0  0  0  0  0  0  0  0  0  0
    9.7207  -40.6980  -13.4143 C   0  0  0  0  0  0  0  0  0  0  0  0
   11.0907  -40.7349  -13.2384 C   0  0  0  0  0  0  0  0  0  0  0  0
   11.8794  -40.8295  -14.3590 C   0  0  0  0  0  0  0  0  0  0  0  0
   11.3790  -40.8892  -15.6449 C   0  0  0  0  0  0  0  0  0  0  0  0
    9.2230  -40.7568  -14.6823 C   0  0  0  0  0  0  0  0  0  0  0  0
   10.0092  -40.8517  -15.8112 C   0  0  0  0  0  0  0  0  0  0  0  0
    9.3492  -40.9086  -17.1374 C   0  0  0  0  0  0  0  0  0  0  0  0
    8.8646  -42.1327  -17.5555 N   0  0  0  0  0  0  0  0  0  0  0  0
    7.5461  -42.5214  -17.3058 C   0  0  0  0  0  0  0  0  0  0  0  0
    7.2855  -43.4742  -18.4843 C   0  0  0  0  0  0  0  0  0  0  0  0
    9.6590  -43.1068  -18.1387 C   0  0  0  0  0  0  0  0  0  0  0  0
    8.6680  -44.0007  -18.8518 C   0  0  2  0  0  0  0  0  0  0  0  0
    8.8382  -43.8046  -20.2813 N   0  0  0  0  0  0  0  0  0  0  0  0
  1  2  1  0
  2  3  2  0
  3  4  1  0
  4  5  2  0
  5  6  1  0
  6  7  2  0
  2  7  1  0
  7  8  1  0
  8  9  2  0
  6 10  1  0
  9 11  1  0
 10 11  2  0
 11 12  1  0
 12 13  2  0
 13 14  1  0
 14 15  2  0
 12 16  1  0
 15 17  1  0
 16 17  2  0
 17 18  1  0
 18 19  1  0
 19 20  1  0
 20 21  1  0
 19 22  1  0
 22 23  1  0
 21 23  1  0
 23 24  1  6
M  END
$$$$
