@<TRIPOS>MOLECULE
1LRH_NLA_D_8190
 24 25 0 0 0
SMALL
GASTEIGER

@<TRIPOS>ATOM
      1 C           0.0784    0.4165    0.1490 C.ar    1  UNL1       -0.0142
      2 C          -0.9778   -0.0589   -0.6779 C.ar    1  UNL1       -0.0291
      3 C          -1.9979   -0.8391   -0.1043 C.ar    1  UNL1       -0.0575
      4 C          -1.9983   -1.1283    1.2592 C.ar    1  UNL1       -0.0609
      5 C          -0.9778   -0.6535    2.0788 C.ar    1  UNL1       -0.0540
      6 C           0.0630    0.1136    1.5388 C.ar    1  UNL1       -0.0176
      7 C           1.0928    0.5781    2.3723 C.ar    1  UNL1       -0.0540
      8 C           2.1387    1.3345    1.8439 C.ar    1  UNL1       -0.0612
      9 C           2.1683    1.6327    0.4824 C.ar    1  UNL1       -0.0612
     10 C           1.1512    1.1802   -0.3617 C.ar    1  UNL1       -0.0538
     11 C          -1.0342    0.2048   -2.1670 C.3     1  UNL1        0.0704
     12 C          -0.1100   -0.7172   -2.8988 C.2     1  UNL1        0.3091
     13 O           0.8713   -0.2541   -3.5394 O.2     1  UNL1       -0.2507
     14 O          -0.3379   -2.0897   -2.8735 O.3     1  UNL1       -0.4804
     15 H          -2.8020   -1.2278   -0.7171 H       1  UNL1        0.0621
     16 H          -2.7949   -1.7264    1.6828 H       1  UNL1        0.0618
     17 H          -0.9989   -0.8910    3.1359 H       1  UNL1        0.0624
     18 H           1.0897    0.3539    3.4325 H       1  UNL1        0.0624
     19 H           2.9303    1.6887    2.4916 H       1  UNL1        0.0618
     20 H           2.9846    2.2172    0.0777 H       1  UNL1        0.0618
     21 H           1.2228    1.4330   -1.4091 H       1  UNL1        0.0624
     22 H          -2.0634    0.0446   -2.5551 H       1  UNL1        0.0426
     23 H          -0.7935    1.2665   -2.3862 H       1  UNL1        0.0426
     24 H           0.2785   -2.7277   -3.3625 H       1  UNL1        0.2951
@<TRIPOS>BOND
     1     1     2   ar
     2     2     3   ar
     3     3     4   ar
     4     4     5   ar
     5     1     6   ar
     6     5     6   ar
     7     6     7   ar
     8     7     8   ar
     9     8     9   ar
    10     1    10   ar
    11     9    10   ar
    12     2    11    1
    13    11    12    1
    14    12    13    2
    15    12    14    1
    16     3    15    1
    17     4    16    1
    18     5    17    1
    19     7    18    1
    20     8    19    1
    21     9    20    1
    22    10    21    1
    23    11    22    1
    24    11    23    1
    25    14    24    1
