6XHT_V2V_E_301
     RDKit          3D

 59 60  0  0  0  0  0  0  0  0999 V2000
    7.2722  -10.6135  102.9519 C   0  0  0  0  0  0  0  0  0  0  0  0
    8.3383  -10.6020  103.9786 C   0  0  0  0  0  0  0  0  0  0  0  0
    8.0190   -8.0888  104.3567 C   0  0  0  0  0  0  0  0  0  0  0  0
    6.6003   -9.3243  102.6615 C   0  0  0  0  0  0  0  0  0  0  0  0
    9.7822   -9.3712  105.6244 C   0  0  1  0  0  0  0  0  0  0  0  0
    9.7352  -10.7940  106.3004 C   0  0  2  0  0  0  0  0  0  0  0  0
   10.5265  -10.4839  107.6408 C   0  0  2  0  0  0  0  0  0  0  0  0
   10.2861   -9.2168  107.8923 C   0  0  2  0  0  0  0  0  0  0  0  0
    9.3120   -9.0356  109.0452 C   0  0  0  0  0  0  0  0  0  0  0  0
    9.0322   -9.7172  103.4062 C   0  0  0  0  0  0  0  0  0  0  0  0
    8.5201   -8.5057  104.2837 C   0  0  1  0  0  0  0  0  0  0  0  0
    7.1127   -8.1426  103.8678 C   0  0  1  0  0  0  0  0  0  0  0  0
    6.8314   -8.4459  102.3657 C   0  0  1  0  0  0  0  0  0  0  0  0
    6.1418   -9.7932  102.2571 C   0  0  0  0  0  0  0  0  0  0  0  0
    8.6881   -9.3660  104.6406 N   0  0  0  0  0  4  0  0  0  0  0  0
    6.9490   -8.0915  103.3395 N   0  0  0  0  0  0  0  0  0  0  0  0
    5.5588   -9.2969  101.6514 N   0  0  0  0  0  0  0  0  0  0  0  0
    8.3596   -7.0947  104.9311 O   0  0  0  0  0  0  0  0  0  0  0  0
    9.4911   -8.5658  106.5922 O   0  0  0  0  0  0  0  0  0  0  0  0
    8.0112   -9.5507  108.7071 O   0  0  0  0  0  0  0  0  0  0  0  0
    8.9476  -11.9252  109.1897 O   0  0  0  0  0  0  0  0  0  0  0  0
    6.5317  -11.6485  108.5043 O   0  0  0  0  0  0  0  0  0  0  0  0
    8.3629  -11.3977  106.7504 O   0  0  0  0  0  0  0  0  0  0  0  0
    7.4451   -9.2091  105.6074 O   0  0  0  0  0  0  0  0  0  0  0  0
    6.3390  -11.4389  105.1104 O   0  0  0  0  0  0  0  0  0  0  0  0
    8.6909  -10.9071  104.1461 O   0  0  0  0  0  0  0  0  0  0  0  0
    6.1141  -10.3031  100.9214 O   0  0  0  0  0  0  0  0  0  0  0  0
    6.0074   -7.4590  101.7285 O   0  0  0  0  0  0  0  0  0  0  0  0
    6.2179   -8.8458  104.7190 O   0  0  0  0  0  0  0  0  0  0  0  0
    8.6048   -8.7816  105.6715 O   0  0  0  0  0  0  0  0  0  0  0  0
   11.9773  -10.7032  107.3855 O   0  0  0  0  0  0  0  0  0  0  0  0
   10.3454  -11.7584  105.5951 O   0  0  0  0  0  0  0  0  0  0  0  0
    7.9581  -11.1915  108.3471 P   0  0  1  0  0  5  0  0  0  0  0  0
    7.6547  -10.7189  105.4124 P   0  0  2  0  0  5  0  0  0  0  0  0
    7.0081  -11.4813  102.4596 H   0  0  0  0  0  0  0  0  0  0  0  0
    8.8311  -11.4756  104.2214 H   0  0  0  0  0  0  0  0  0  0  0  0
   10.7078   -9.1154  105.1525 H   0  0  0  0  0  0  0  0  0  0  0  0
    8.7423  -11.1772  106.4117 H   0  0  0  0  0  0  0  0  0  0  0  0
   10.2348  -11.1037  108.4629 H   0  0  0  0  0  0  0  0  0  0  0  0
   11.2295   -8.7617  108.1111 H   0  0  0  0  0  0  0  0  0  0  0  0
    9.6832   -9.5577  109.9022 H   0  0  0  0  0  0  0  0  0  0  0  0
    9.2210   -7.9900  109.2535 H   0  0  0  0  0  0  0  0  0  0  0  0
    8.5465   -9.7187  102.4528 H   0  0  0  0  0  0  0  0  0  0  0  0
   10.0844   -9.6547  103.2226 H   0  0  0  0  0  0  0  0  0  0  0  0
    9.1587   -7.6650  104.1099 H   0  0  0  0  0  0  0  0  0  0  0  0
    6.9754   -7.0864  103.9702 H   0  0  0  0  0  0  0  0  0  0  0  0
    7.7773   -8.4398  101.8657 H   0  0  0  0  0  0  0  0  0  0  0  0
    6.6614  -10.4927  102.8780 H   0  0  0  0  0  0  0  0  0  0  0  0
    5.1269   -9.6582  102.5681 H   0  0  0  0  0  0  0  0  0  0  0  0
    5.3083  -10.1242  101.1802 H   0  0  0  0  0  0  0  0  0  0  0  0
    5.1028   -8.4511  101.4373 H   0  0  0  0  0  0  0  0  0  0  0  0
    6.2582  -11.5426  109.4289 H   0  0  0  0  0  0  0  0  0  0  0  0
    5.7302  -11.3269  105.8572 H   0  0  0  0  0  0  0  0  0  0  0  0
    7.0221  -10.4374  100.6078 H   0  0  0  0  0  0  0  0  0  0  0  0
    5.1381   -7.4372  102.1584 H   0  0  0  0  0  0  0  0  0  0  0  0
    6.3549   -9.8003  104.6143 H   0  0  0  0  0  0  0  0  0  0  0  0
    8.0405   -9.5411  105.8852 H   0  0  0  0  0  0  0  0  0  0  0  0
   12.2622  -10.1491  106.6420 H   0  0  0  0  0  0  0  0  0  0  0  0
   11.2688  -11.5074  105.4357 H   0  0  0  0  0  0  0  0  0  0  0  0
  1  2  4  0
  1  4  4  0
  5  6  1  0
  6  7  1  0
  7  8  1  0
  8  9  1  0
 10 11  1  0
 11 12  1  0
 12 13  1  0
 13 14  1  0
  2 15  4  0
  3 15  4  0
  5 15  1  0
  3 16  4  0
  4 16  4  0
  4 17  1  0
  3 18  2  0
  5 19  1  0
  8 19  1  0
  9 20  1  0
 10 26  1  0
 14 27  1  0
 13 28  1  0
 12 29  1  0
 11 30  1  0
  7 31  1  0
  6 32  1  0
 33 20  1  6
 21 33  2  0
 33 22  1  0
 23 33  1  0
 34 23  1  6
 24 34  2  0
 34 25  1  0
 26 34  1  0
  1 35  1  0
  2 36  1  0
  5 37  1  1
  6 38  1  6
  7 39  1  6
  8 40  1  6
  9 41  1  0
  9 42  1  0
 10 43  1  0
 10 44  1  0
 11 45  1  6
 12 46  1  1
 13 47  1  1
 14 48  1  0
 14 49  1  0
 17 50  1  0
 17 51  1  0
 22 52  1  0
 25 53  1  0
 27 54  1  0
 28 55  1  0
 29 56  1  0
 30 57  1  0
 31 58  1  0
 32 59  1  0
M  CHG  1  15   1
M  END
