8GFD_ZHR_A_601
     RDKit          3D

 26 28  0  0  0  0  0  0  0  0999 V2000
  -45.0081  -70.7443  -10.5766 C   0  0  0  0  0  0  0  0  0  0  0  0
  -44.4211  -71.7048  -11.5652 C   0  0  0  0  0  0  0  0  0  0  0  0
  -43.5065  -72.4823  -11.1901 O   0  0  0  0  0  0  0  0  0  0  0  0
  -44.8576  -71.7719  -12.9116 N   0  0  0  0  0  0  0  0  0  0  0  0
  -46.2484  -71.9476  -13.2467 C   0  0  2  0  0  0  0  0  0  0  0  0
  -46.5423  -73.1768  -14.0296 C   0  0  1  0  0  0  0  0  0  0  0  0
  -47.9295  -73.4062  -13.9583 O   0  0  0  0  0  0  0  0  0  0  0  0
  -46.1060  -73.1217  -15.4764 C   0  0  2  0  0  0  0  0  0  0  0  0
  -44.7948  -73.5316  -15.6557 O   0  0  0  0  0  0  0  0  0  0  0  0
  -46.2926  -71.7335  -16.0367 C   0  0  1  0  0  0  0  0  0  0  0  0
  -46.7970  -71.8630  -17.4656 C   0  0  0  0  0  0  0  0  0  0  0  0
  -48.2005  -72.0338  -17.4612 O   0  0  0  0  0  0  0  0  0  0  0  0
  -47.2514  -71.1182  -15.2721 O   0  0  0  0  0  0  0  0  0  0  0  0
  -46.7581  -70.7489  -14.0210 C   0  0  1  0  0  0  0  0  0  0  0  0
  -47.7162  -70.0423  -13.3446 O   0  0  0  0  0  0  0  0  0  0  0  0
  -47.7901  -68.7029  -13.5868 C   0  0  0  0  0  0  0  0  0  0  0  0
  -48.0721  -67.8923  -12.3639 C   0  0  0  0  0  0  0  0  0  0  0  0
  -48.3030  -66.4578  -12.6672 C   0  0  0  0  0  0  0  0  0  0  0  0
  -49.1980  -66.1601  -13.6824 C   0  0  0  0  0  0  0  0  0  0  0  0
  -49.4997  -64.8709  -14.0609 C   0  0  0  0  0  0  0  0  0  0  0  0
  -48.8528  -63.8532  -13.3649 C   0  0  0  0  0  0  0  0  0  0  0  0
  -48.9548  -62.5345  -13.5199 O   0  0  0  0  0  0  0  0  0  0  0  0
  -48.1566  -61.9563  -12.6403 C   0  0  0  0  0  0  0  0  0  0  0  0
  -47.5147  -62.9115  -11.8896 C   0  0  0  0  0  0  0  0  0  0  0  0
  -47.9598  -64.1353  -12.3525 C   0  0  0  0  0  0  0  0  0  0  0  0
  -47.6663  -65.4377  -11.9827 C   0  0  0  0  0  0  0  0  0  0  0  0
  1  2  1  1
  2  3  2  0
  2  4  1  0
  5  4  1  6
  5  6  1  0
  6  7  1  6
  6  8  1  0
  8  9  1  1
  8 10  1  0
 10 11  1  0
 11 12  1  1
 10 13  1  1
  5 14  1  0
 13 14  1  0
 14 15  1  1
 16 15  1  1
 16 17  1  0
 17 18  1  1
 18 19  2  0
 19 20  1  0
 20 21  2  0
 21 22  1  0
 22 23  1  0
 23 24  2  0
 21 25  1  0
 24 25  1  0
 18 26  1  0
 25 26  2  0
M  END
$$$$
