7WUY_76N_A_529
     RDKit          3D

 59 63  0  0  0  0  0  0  0  0999 V2000
   13.4467  146.2845   29.4022 C   0  0  2  0  0  0  0  0  0  0  0  0
   14.1356  147.4062   28.6994 C   0  0  1  0  0  0  0  0  0  0  0  0
   15.3271  147.1482   27.7689 C   0  0  1  0  0  0  0  0  0  0  0  0
   15.8177  145.6729   27.5775 C   0  0  0  0  0  0  0  0  0  0  0  0
   14.7178  144.6366   27.8638 C   0  0  0  0  0  0  0  0  0  0  0  0
   14.0441  144.8741   29.2397 C   0  0  2  0  0  0  0  0  0  0  0  0
   14.0153  147.0237   25.6095 C   0  0  0  0  0  0  0  0  0  0  0  0
   13.7024  147.5069   24.2985 C   0  0  0  0  0  0  0  0  0  0  0  0
   14.3236  148.7070   23.7644 C   0  0  0  0  0  0  0  0  0  0  0  0
   15.6031  148.7963   25.8656 C   0  0  0  0  0  0  0  0  0  0  0  0
   14.9991  147.6911   26.4001 C   0  0  0  0  0  0  0  0  0  0  0  0
   12.5420  146.9820   23.6630 C   0  0  0  0  0  0  0  0  0  0  0  0
   10.0059  142.8015   24.7064 C   0  0  0  0  0  0  0  0  0  0  0  0
    9.9368  142.7439   26.2394 C   0  0  0  0  0  0  0  0  0  0  0  0
   11.2022  143.4013   26.7808 C   0  0  0  0  0  0  0  0  0  0  0  0
   11.0859  144.9039   26.5170 C   0  0  0  0  0  0  0  0  0  0  0  0
   11.2873  145.0287   24.9893 C   0  0  1  0  0  0  0  0  0  0  0  0
   10.1282  144.2526   24.2223 C   0  0  2  0  0  0  0  0  0  0  0  0
   11.3527  146.5181   24.5574 C   0  0  2  0  0  0  0  0  0  0  0  0
    9.9925  146.7803   23.7714 C   0  0  1  0  0  0  0  0  0  0  0  0
    8.8095  144.8212   24.5069 C   0  0  0  0  0  0  0  0  0  0  0  0
    8.8495  146.1379   24.5218 C   0  0  0  0  0  0  0  0  0  0  0  0
    9.5836  148.2778   23.5231 C   0  0  0  0  0  0  0  0  0  0  0  0
   15.2808  149.2686   24.6164 N   0  0  0  0  0  4  0  0  0  0  0  0
   14.1309  149.2196   22.6250 O   0  0  0  0  0  0  0  0  0  0  0  0
   13.4485  145.9504   26.0969 O   0  0  0  0  0  0  0  0  0  0  0  0
   12.1987  147.2897   22.4701 O   0  0  0  0  0  0  0  0  0  0  0  0
   12.8738  146.8745   28.1287 O   0  0  0  0  0  0  0  0  0  0  0  0
   12.9159  143.9157   29.2417 O   0  0  0  0  0  0  0  0  0  0  0  0
   16.4421  147.8281   28.3674 O   0  0  0  0  0  0  0  0  0  0  0  0
   13.1126  146.1248   30.4060 H   0  0  0  0  0  0  0  0  0  0  0  0
   14.5225  148.3302   29.0754 H   0  0  0  0  0  0  0  0  0  0  0  0
   16.6361  145.4958   28.2436 H   0  0  0  0  0  0  0  0  0  0  0  0
   16.1075  145.5603   26.5537 H   0  0  0  0  0  0  0  0  0  0  0  0
   15.1529  143.6590   27.8559 H   0  0  0  0  0  0  0  0  0  0  0  0
   13.9678  144.7310   27.1065 H   0  0  0  0  0  0  0  0  0  0  0  0
   14.7629  144.7585   30.0239 H   0  0  0  0  0  0  0  0  0  0  0  0
   16.3223  149.2898   26.4172 H   0  0  0  0  0  0  0  0  0  0  0  0
    9.1163  142.3691   24.2984 H   0  0  0  0  0  0  0  0  0  0  0  0
   10.8673  142.2568   24.3805 H   0  0  0  0  0  0  0  0  0  0  0  0
    9.8862  141.7258   26.5648 H   0  0  0  0  0  0  0  0  0  0  0  0
    9.0657  143.2524   26.5966 H   0  0  0  0  0  0  0  0  0  0  0  0
   12.0619  143.0076   26.2800 H   0  0  0  0  0  0  0  0  0  0  0  0
   11.3096  143.2087   27.8278 H   0  0  0  0  0  0  0  0  0  0  0  0
   11.8433  145.4433   27.0464 H   0  0  0  0  0  0  0  0  0  0  0  0
   10.1518  145.3099   26.8450 H   0  0  0  0  0  0  0  0  0  0  0  0
   12.2229  144.5802   24.7277 H   0  0  0  0  0  0  0  0  0  0  0  0
   10.3914  144.3253   23.1877 H   0  0  0  0  0  0  0  0  0  0  0  0
   11.5040  147.0829   25.4536 H   0  0  0  0  0  0  0  0  0  0  0  0
   10.1813  146.3595   22.8059 H   0  0  0  0  0  0  0  0  0  0  0  0
    7.9581  144.2625   24.6742 H   0  0  0  0  0  0  0  0  0  0  0  0
    8.1398  146.6992   25.0183 H   0  0  0  0  0  0  0  0  0  0  0  0
    9.3815  148.7525   24.4605 H   0  0  0  0  0  0  0  0  0  0  0  0
    8.7073  148.3113   22.9100 H   0  0  0  0  0  0  0  0  0  0  0  0
   10.3838  148.7889   23.0297 H   0  0  0  0  0  0  0  0  0  0  0  0
   15.7615  150.0655   24.2953 H   0  0  0  0  0  0  0  0  0  0  0  0
   12.8000  145.4950   25.5969 H   0  0  0  0  0  0  0  0  0  0  0  0
   12.3275  144.1074   28.4948 H   0  0  0  0  0  0  0  0  0  0  0  0
   16.6192  147.4500   29.2430 H   0  0  0  0  0  0  0  0  0  0  0  0
  1  2  1  0
  2  3  1  0
  3  4  1  0
  4  5  1  0
  5  6  1  0
  1  6  1  0
  7  8  4  0
  8  9  4  0
 10 11  4  0
  7 11  4  0
  3 11  1  0
  8 12  1  0
 13 14  1  0
 14 15  1  0
 15 16  1  0
 17 16  1  0
 18 13  1  0
 17 18  1  0
 19 12  1  0
 17 19  1  0
 19 20  1  0
 18 21  1  0
 20 22  1  0
 21 22  2  0
 20 23  1  0
  9 24  4  0
 10 24  4  0
  9 25  2  0
  7 26  1  0
 12 27  2  0
  2 28  1  0
  1 28  1  0
  6 29  1  0
  3 30  1  1
  1 31  1  1
  2 32  1  1
  4 33  1  0
  4 34  1  0
  5 35  1  0
  5 36  1  0
  6 37  1  1
 10 38  1  0
 13 39  1  0
 13 40  1  0
 14 41  1  0
 14 42  1  0
 15 43  1  0
 15 44  1  0
 16 45  1  0
 16 46  1  0
 17 47  1  1
 18 48  1  6
 19 49  1  1
 20 50  1  6
 21 51  1  0
 22 52  1  0
 23 53  1  0
 23 54  1  0
 23 55  1  0
 24 56  1  0
 26 57  1  0
 29 58  1  0
 30 59  1  0
M  CHG  1  24   1
M  END
