
     RDKit          3D

 31 34  0  0  0  0  0  0  0  0999 V2000
  184.0360  128.6432   28.9756 N   0  0  0  0  0  0  0  0  0  0  0  0
  183.5181  126.8393   25.9734 C   0  0  0  0  0  0  0  0  0  0  0  0
  180.4344  126.5747   27.5184 O   0  0  0  0  0  0  0  0  0  0  0  0
  183.4739  127.4289   27.3351 C   0  0  0  0  0  0  0  0  0  0  0  0
  181.1185  123.8148   28.6166 C   0  0  0  0  0  0  0  0  0  0  0  0
  181.3695  122.2408   32.0651 C   0  0  0  0  0  0  0  0  0  0  0  0
  182.3072  121.1497   31.6226 C   0  0  0  0  0  0  0  0  0  0  0  0
  184.1190  120.1412   31.0602 C   0  0  0  0  0  0  0  0  0  0  0  0
  185.4356  119.8161   30.7012 C   0  0  0  0  0  0  0  0  0  0  0  0
  185.8025  118.4686   30.6234 C   0  0  0  0  0  0  0  0  0  0  0  0
  184.8770  117.4649   30.9067 C   0  0  0  0  0  0  0  0  0  0  0  0
  183.5580  117.7729   31.2624 C   0  0  0  0  0  0  0  0  0  0  0  0
  183.2008  119.1283   31.3139 C   0  0  0  0  0  0  0  0  0  0  0  0
  180.7649  119.1501   31.9383 C   0  0  0  0  0  0  0  0  0  0  0  0
  182.5195  127.1824   28.3541 C   0  0  0  0  0  0  0  0  0  0  0  0
  180.3414  117.8890   31.1291 C   0  0  0  0  0  0  0  0  0  0  0  0
  180.7373  116.5793   31.8288 C   0  0  0  0  0  0  0  0  0  0  0  0
  180.9402  117.8866   29.7153 C   0  0  0  0  0  0  0  0  0  0  0  0
  178.8031  117.9130   30.9983 C   0  0  0  0  0  0  0  0  0  0  0  0
  182.8965  128.0107   29.4011 C   0  0  0  0  0  0  0  0  0  0  0  0
  184.8174  129.6162   29.7026 C   0  0  0  0  0  0  0  0  0  0  0  0
  182.2723  128.2578   30.7239 C   0  0  0  0  0  0  0  0  0  0  0  0
  181.3587  126.3133   28.2838 C   0  0  0  0  0  0  0  0  0  0  0  0
  181.3908  125.3518   30.5470 C   0  0  0  0  0  0  0  0  0  0  0  0
  180.4592  124.3544   31.2590 C   0  0  0  0  0  0  0  0  0  0  0  0
  181.4573  122.7592   29.6846 C   0  0  0  0  0  0  0  0  0  0  0  0
  184.4147  128.2935   27.7340 N   0  0  0  0  0  0  0  0  0  0  0  0
  181.3622  125.1819   29.0949 N   0  0  0  0  0  0  0  0  0  0  0  0
  180.7007  122.9290   30.9484 N   0  0  0  0  0  0  0  0  0  0  0  0
  183.5537  121.3720   31.2418 N   0  0  0  0  0  0  0  0  0  0  0  0
  182.0199  119.7949   31.5887 N   0  0  0  0  0  0  0  0  0  0  0  0
  2  4  1  0
  6  7  1  0
  8  9  4  0
  9 10  4  0
 10 11  4  0
 11 12  4  0
  8 13  4  0
 12 13  4  0
  4 15  4  0
 14 16  1  0
 16 17  1  0
 16 18  1  0
 16 19  1  0
  1 20  4  0
 15 20  4  0
  1 21  1  0
 20 22  1  0
  3 23  2  0
 15 23  1  0
 24 25  1  0
  5 26  1  0
  1 27  4  0
  4 27  4  0
 23 28  1  0
 24 28  1  0
  5 28  1  0
  6 29  1  0
 25 29  1  0
 26 29  1  0
  8 30  4  0
  7 30  4  0
  7 31  4  0
 13 31  4  0
 14 31  1  0
M  END
