7XQZ_FPF_A_601
     RDKit          3D

 52 51  0  0  0  0  0  0  0  0999 V2000
  -20.7711   -9.5308  -17.3689 C   0  0  2  0  0  0  0  0  0  0  0  0
  -19.5738   -9.8150  -16.6841 O   0  0  0  0  0  0  0  0  0  0  0  0
  -20.4474   -8.7351  -18.6051 C   0  0  0  0  0  0  0  0  0  0  0  0
  -21.3273   -7.7601  -18.9645 F   0  0  0  0  0  0  0  0  0  0  0  0
  -19.3437   -8.9640  -19.3606 C   0  0  0  0  0  0  0  0  0  0  0  0
  -18.3388  -10.0280  -18.9807 C   0  0  2  0  0  0  0  0  0  0  0  0
  -19.1224   -8.1989  -20.6542 C   0  0  2  0  0  0  0  0  0  0  0  0
  -20.3386   -8.3097  -21.5854 C   0  0  2  0  0  0  0  0  0  0  0  0
  -20.2418   -7.3466  -22.7458 C   0  0  0  0  0  0  0  0  0  0  0  0
  -19.0913   -7.0670  -23.3963 C   0  0  0  0  0  0  0  0  0  0  0  0
  -17.7721   -7.6576  -22.9580 C   0  0  1  0  0  0  0  0  0  0  0  0
  -19.1326   -6.1629  -24.6126 C   0  0  1  0  0  0  0  0  0  0  0  0
  -18.2609   -4.9104  -24.4281 C   0  0  1  0  0  0  0  0  0  0  0  0
  -19.0666   -3.7325  -23.9314 C   0  0  0  0  0  0  0  0  0  0  0  0
  -18.5408   -2.5444  -23.5649 C   0  0  0  0  0  0  0  0  0  0  0  0
  -17.0518   -2.2950  -23.5653 C   0  0  2  0  0  0  0  0  0  0  0  0
  -19.4789   -1.4496  -23.1280 C   0  0  2  0  0  0  0  0  0  0  0  0
  -19.1336  -11.4363  -16.9858 P   0  0  1  0  0  5  0  0  0  0  0  0
  -20.3121  -12.3308  -16.6734 O   0  0  0  0  0  0  0  0  0  0  0  0
  -18.7025  -11.6609  -18.6116 O   0  0  0  0  0  0  0  0  0  0  0  0
  -17.8559  -11.8706  -15.9466 O   0  0  0  0  0  0  0  0  0  0  0  0
  -17.7209  -10.6739  -14.7429 P   0  0  1  0  0  5  0  0  0  0  0  0
  -18.5503  -11.2049  -13.3668 O   0  0  0  0  0  0  0  0  0  0  0  0
  -16.0911  -10.4462  -14.3453 O   0  0  0  0  0  0  0  0  0  0  0  0
  -18.3222   -9.3628  -15.2019 O   0  0  0  0  0  0  0  0  0  0  0  0
  -21.4984   -8.9559  -16.7520 H   0  0  0  0  0  0  0  0  0  0  0  0
  -21.2530  -10.4818  -17.6830 H   0  0  0  0  0  0  0  0  0  0  0  0
  -18.7572  -11.0376  -19.1755 H   0  0  0  0  0  0  0  0  0  0  0  0
  -18.0695   -9.9348  -17.9079 H   0  0  0  0  0  0  0  0  0  0  0  0
  -17.4049   -9.9247  -19.5722 H   0  0  0  0  0  0  0  0  0  0  0  0
  -18.2354   -8.6222  -21.1728 H   0  0  0  0  0  0  0  0  0  0  0  0
  -18.8924   -7.1270  -20.4699 H   0  0  0  0  0  0  0  0  0  0  0  0
  -21.2544   -8.1141  -20.9890 H   0  0  0  0  0  0  0  0  0  0  0  0
  -20.4054   -9.3445  -21.9835 H   0  0  0  0  0  0  0  0  0  0  0  0
  -21.1589   -6.8741  -23.0879 H   0  0  0  0  0  0  0  0  0  0  0  0
  -17.9003   -8.7340  -22.7198 H   0  0  0  0  0  0  0  0  0  0  0  0
  -17.0053   -7.5784  -23.7564 H   0  0  0  0  0  0  0  0  0  0  0  0
  -17.3934   -7.1197  -22.0637 H   0  0  0  0  0  0  0  0  0  0  0  0
  -18.7724   -6.7286  -25.4992 H   0  0  0  0  0  0  0  0  0  0  0  0
  -20.1739   -5.8506  -24.8372 H   0  0  0  0  0  0  0  0  0  0  0  0
  -17.4604   -5.1233  -23.6877 H   0  0  0  0  0  0  0  0  0  0  0  0
  -17.7439   -4.6710  -25.3806 H   0  0  0  0  0  0  0  0  0  0  0  0
  -20.1465   -3.8588  -23.9032 H   0  0  0  0  0  0  0  0  0  0  0  0
  -16.5615   -2.7616  -22.6860 H   0  0  0  0  0  0  0  0  0  0  0  0
  -16.8447   -1.2059  -23.5301 H   0  0  0  0  0  0  0  0  0  0  0  0
  -16.5962   -2.7313  -24.4788 H   0  0  0  0  0  0  0  0  0  0  0  0
  -20.4583   -1.5685  -23.6374 H   0  0  0  0  0  0  0  0  0  0  0  0
  -19.0497   -0.4604  -23.3944 H   0  0  0  0  0  0  0  0  0  0  0  0
  -19.6537   -1.4703  -22.0322 H   0  0  0  0  0  0  0  0  0  0  0  0
  -18.7831  -10.7680  -19.0314 H   0  0  0  0  0  0  0  0  0  0  0  0
  -19.0253  -10.4034  -13.0310 H   0  0  0  0  0  0  0  0  0  0  0  0
  -15.7687   -9.7570  -14.9794 H   0  0  0  0  0  0  0  0  0  0  0  0
  1  2  1  0
  1  3  1  0
  3  4  1  0
  3  5  2  0
  5  6  1  0
  5  7  1  0
  7  8  1  0
  8  9  1  0
  9 10  2  0
 10 11  1  0
 10 12  1  0
 12 13  1  0
 13 14  1  0
 14 15  2  0
 15 16  1  0
 15 17  1  0
 18  2  1  6
 18 19  2  0
 18 20  1  0
 18 21  1  0
 22 21  1  6
 22 23  1  0
 22 24  1  0
 22 25  2  0
  1 26  1  1
  1 27  1  0
  6 28  1  1
  6 29  1  0
  6 30  1  0
  7 31  1  6
  7 32  1  0
  8 33  1  1
  8 34  1  0
  9 35  1  0
 11 36  1  1
 11 37  1  0
 11 38  1  0
 12 39  1  6
 12 40  1  0
 13 41  1  1
 13 42  1  0
 14 43  1  0
 16 44  1  1
 16 45  1  0
 16 46  1  0
 17 47  1  6
 17 48  1  0
 17 49  1  0
 20 50  1  0
 23 51  1  0
 24 52  1  0
M  END
