7XPO_UPG_A_402
     RDKit          3D

 36 38  0  0  0  0  0  0  0  0999 V2000
  -16.4894  -11.0987  -11.9646 N   0  0  0  0  0  0  0  0  0  0  0  0
  -16.2528   -9.7894  -11.6821 C   0  0  0  0  0  0  0  0  0  0  0  0
  -16.3326   -9.3473  -10.4080 N   0  0  0  0  0  0  0  0  0  0  0  0
  -16.6469  -10.1746   -9.4121 C   0  0  0  0  0  0  0  0  0  0  0  0
  -16.8547  -11.5274   -9.6292 C   0  0  0  0  0  0  0  0  0  0  0  0
  -16.8059  -11.9373  -10.9370 C   0  0  0  0  0  0  0  0  0  0  0  0
  -15.9689   -8.9936  -12.5707 O   0  0  0  0  0  0  0  0  0  0  0  0
  -16.6469   -9.6519   -8.1988 O   0  0  0  0  0  0  0  0  0  0  0  0
  -16.4963  -11.5404  -13.2689 C   0  0  1  0  0  0  0  0  0  0  0  0
  -15.4029  -12.6039  -13.6603 C   0  0  2  0  0  0  0  0  0  0  0  0
  -14.2718  -11.7615  -14.1369 O   0  0  0  0  0  0  0  0  0  0  0  0
  -15.8730  -13.3739  -14.6036 C   0  0  1  0  0  0  0  0  0  0  0  0
  -17.4631  -13.4685  -14.2423 C   0  0  2  0  0  0  0  0  0  0  0  0
  -17.6903  -12.3955  -13.4974 O   0  0  0  0  0  0  0  0  0  0  0  0
  -15.8488  -12.8751  -15.9929 O   0  0  0  0  0  0  0  0  0  0  0  0
  -17.7918  -14.7864  -13.5230 C   0  0  0  0  0  0  0  0  0  0  0  0
  -18.2385  -14.4492  -12.2276 O   0  0  0  0  0  0  0  0  0  0  0  0
  -18.4522  -15.5456  -11.1172 P   0  0  2  0  0  0  0  0  0  0  0  0
  -19.8976  -15.5085  -10.6613 O   0  0  0  0  0  0  0  0  0  0  0  0
  -17.4192  -15.3259  -10.0463 O   0  0  0  0  0  0  0  0  0  0  0  0
  -18.3467  -16.9475  -11.8958 O   0  0  0  0  0  0  0  0  0  0  0  0
  -17.0479  -17.7198  -12.5079 P   0  0  2  0  0  0  0  0  0  0  0  0
  -15.9338  -17.6507  -11.5094 O   0  0  0  0  0  0  0  0  0  0  0  0
  -17.1076  -17.5846  -13.9440 O   0  0  0  0  0  0  0  0  0  0  0  0
  -17.6161  -19.2508  -12.1227 O   0  0  0  0  0  0  0  0  0  0  0  0
  -18.5042  -19.9306  -12.9757 C   0  0  2  0  0  0  0  0  0  0  0  0
  -18.5881  -21.3881  -12.7115 C   0  0  1  0  0  0  0  0  0  0  0  0
  -17.2464  -21.8874  -12.6961 C   0  0  2  0  0  0  0  0  0  0  0  0
  -16.7277  -21.9208  -14.0743 C   0  0  1  0  0  0  0  0  0  0  0  0
  -16.6886  -20.4822  -14.6776 C   0  0  1  0  0  0  0  0  0  0  0  0
  -16.5648  -20.5623  -16.1036 C   0  0  0  0  0  0  0  0  0  0  0  0
  -19.2240  -21.7517  -11.4327 O   0  0  0  0  0  0  0  0  0  0  0  0
  -17.1957  -23.2238  -12.0614 O   0  0  0  0  0  0  0  0  0  0  0  0
  -15.4214  -22.4926  -14.0395 O   0  0  0  0  0  0  0  0  0  0  0  0
  -18.0034  -19.7614  -14.3581 O   0  0  0  0  0  0  0  0  0  0  0  0
  -16.0067  -21.8165  -16.4253 O   0  0  0  0  0  0  0  0  0  0  0  0
  1  2  1  0
  2  3  1  0
  3  4  1  0
  4  5  1  0
  1  6  1  0
  5  6  2  0
  2  7  2  0
  4  8  2  0
  9  1  1  1
  9 10  1  0
 10 11  1  6
 10 12  1  0
 12 13  1  0
  9 14  1  0
 13 14  1  0
 12 15  1  6
 13 16  1  1
 16 17  1  0
 17 18  1  0
 18 19  2  0
 18 20  1  1
 18 21  1  0
 21 22  1  0
 22 23  2  0
 22 24  1  6
 22 25  1  0
 26 25  1  1
 26 27  1  0
 27 28  1  0
 28 29  1  0
 29 30  1  0
 30 31  1  6
 27 32  1  1
 28 33  1  6
 29 34  1  1
 26 35  1  0
 30 35  1  0
 31 36  1  0
M  END
