2BM2_PM2_B_3211
     RDKit          3D

 30 33  0  0  0  0  0  0  0  0999 V2000
   31.1456   96.5477   87.3192 C   0  0  0  0  0  0  0  0  0  0  0  0
   30.4641   95.5980   86.4626 C   0  0  0  0  0  0  0  0  0  0  0  0
   30.3850   97.6892   87.8124 C   0  0  0  0  0  0  0  0  0  0  0  0
   29.0632   95.7830   86.1037 C   0  0  0  0  0  0  0  0  0  0  0  0
   29.0060   97.8670   87.4584 C   0  0  0  0  0  0  0  0  0  0  0  0
   28.3426   96.9299   86.6134 C   0  0  0  0  0  0  0  0  0  0  0  0
   28.3606   94.7886   85.2175 C   0  0  0  0  0  0  0  0  0  0  0  0
   29.2544   93.7340   84.6483 N   0  0  0  0  0  0  0  0  0  0  0  0
   32.8382   95.8625   89.2152 C   0  0  0  0  0  0  0  0  0  0  0  0
   34.3802   95.7855   89.5420 C   0  0  0  0  0  0  0  0  0  0  0  0
   35.6111   93.5944   88.8571 C   0  0  0  0  0  0  0  0  0  0  0  0
   35.8457   92.7775   87.9776 O   0  0  0  0  0  0  0  0  0  0  0  0
   32.6233   96.4104   87.7433 C   0  0  1  0  0  0  0  0  0  0  0  0
   35.0322   94.8469   88.5920 N   0  0  0  0  0  0  0  0  0  0  0  0
   34.9085   95.3667   87.1930 C   0  0  0  0  0  0  0  0  0  0  0  0
   33.4443   95.5105   86.7370 C   0  0  0  0  0  0  0  0  0  0  0  0
   36.0379   93.1378   90.2243 C   0  0  0  0  0  0  0  0  0  0  0  0
   36.0429   91.7479   90.5884 C   0  0  0  0  0  0  0  0  0  0  0  0
   36.4853   94.0716   91.2011 C   0  0  0  0  0  0  0  0  0  0  0  0
   36.5033   91.3824   91.9177 C   0  0  0  0  0  0  0  0  0  0  0  0
   36.9062   93.7335   92.4342 N   0  0  0  0  0  0  0  0  0  0  0  0
   36.5636   89.9570   92.3634 C   0  0  0  0  0  0  0  0  0  0  0  0
   36.9215   92.4345   92.7832 C   0  0  0  0  0  0  0  0  0  0  0  0
   37.8823   89.2766   92.0128 C   0  0  0  0  0  0  0  0  0  0  0  0
   38.6204   89.7902   90.8013 C   0  0  0  0  0  0  0  0  0  0  0  0
   38.9126   88.9345   89.6846 C   0  0  0  0  0  0  0  0  0  0  0  0
   39.0588   91.1833   90.7522 C   0  0  0  0  0  0  0  0  0  0  0  0
   39.6357   89.4415   88.5162 C   0  0  0  0  0  0  0  0  0  0  0  0
   39.7670   91.6795   89.6107 C   0  0  0  0  0  0  0  0  0  0  0  0
   40.0620   90.8163   88.4812 C   0  0  0  0  0  0  0  0  0  0  0  0
  1  2  2  0
  1  3  1  0
  2  4  1  0
  3  5  2  0
  4  6  2  0
  5  6  1  0
  4  7  1  0
  7  8  1  0
  9 10  1  0
 11 12  2  0
 13  1  1  6
  9 13  1  0
 10 14  1  0
 11 14  1  0
 14 15  1  0
 13 16  1  0
 15 16  1  0
 11 17  1  0
 17 18  2  0
 17 19  1  0
 18 20  1  0
 19 21  2  0
 20 22  1  0
 20 23  2  0
 21 23  1  0
 22 24  1  0
 24 25  1  0
 25 26  2  0
 25 27  1  0
 26 28  1  0
 27 29  2  0
 28 30  2  0
 29 30  1  0
M  END
