
     RDKit          3D

 18 19  0  0  0  0  0  0  0  0999 V2000
   22.8092   11.7307    1.7233 C   0  0  0  0  0  0  0  0  0  0  0  0
   22.5612   13.0284    1.2914 C   0  0  0  0  0  0  0  0  0  0  0  0
   21.5363   13.2693    0.3778 C   0  0  0  0  0  0  0  0  0  0  0  0
   20.1783    9.8064   -0.1027 N   0  0  0  0  0  0  0  0  0  0  0  0
   20.0424   12.2543   -2.3663 O   0  0  0  0  0  0  0  0  0  0  0  0
   19.6692   12.4836   -1.0942 C   0  0  0  0  0  0  0  0  0  0  0  0
   18.5453   12.8780   -0.8326 O   0  0  0  0  0  0  0  0  0  0  0  0
   20.7452   12.2105   -0.1035 C   0  0  0  0  0  0  0  0  0  0  0  0
   22.0263   10.6738    1.2514 C   0  0  0  0  0  0  0  0  0  0  0  0
   20.9760   10.8872    0.3425 C   0  0  0  0  0  0  0  0  0  0  0  0
   20.4039    8.4155   -0.1092 C   0  0  0  0  0  0  0  0  0  0  0  0
   20.3982    7.7478   -1.3429 C   0  0  0  0  0  0  0  0  0  0  0  0
   20.6571    6.3777   -1.4155 C   0  0  0  0  0  0  0  0  0  0  0  0
   20.6418    5.5872   -2.9444 Cl  0  0  0  0  0  0  0  0  0  0  0  0
   20.9316    5.6467   -0.2658 C   0  0  0  0  0  0  0  0  0  0  0  0
   20.9441    6.3022    0.9603 C   0  0  0  0  0  0  0  0  0  0  0  0
   21.2779    5.4126    2.3964 Cl  0  0  0  0  0  0  0  0  0  0  0  0
   20.6871    7.6732    1.0422 C   0  0  0  0  0  0  0  0  0  0  0  0
  1  2  4  0
  2  3  4  0
  5  6  1  0
  6  7  2  0
  6  8  1  0
  3  8  4  0
  1  9  4  0
  9 10  4  0
  4 10  1  0
  8 10  4  0
  4 11  1  0
 11 12  4  0
 12 13  4  0
 13 14  1  0
 13 15  4  0
 15 16  4  0
 16 17  1  0
 16 18  4  0
 11 18  4  0
M  END
