7TBU_S3P_A_902
     RDKit          3D

 16 16  0  0  0  0  0  0  0  0999 V2000
   26.6686   76.4149   27.6891 C   0  0  0  0  0  0  0  0  0  0  0  0
   27.3981   75.7364   28.5597 C   0  0  0  0  0  0  0  0  0  0  0  0
   28.2803   74.6650   28.0126 C   0  0  2  0  0  0  0  0  0  0  0  0
   27.3727   73.9694   26.9993 C   0  0  2  0  0  0  0  0  0  0  0  0
   27.3274   74.8882   25.8195 C   0  0  1  0  0  0  0  0  0  0  0  0
   26.6726   76.1826   26.2358 C   0  0  0  0  0  0  0  0  0  0  0  0
   25.8007   77.4655   28.2083 C   0  0  0  0  0  0  0  0  0  0  0  0
   28.6250   73.7209   28.9528 O   0  0  0  0  0  0  0  0  0  0  0  0
   26.1092   73.8630   27.5795 O   0  0  0  0  0  0  0  0  0  0  0  0
   28.6521   75.1413   25.3982 O   0  0  0  0  0  0  0  0  0  0  0  0
   25.1405   78.3369   27.3465 O   0  0  0  0  0  0  0  0  0  0  0  0
   25.6034   77.6404   29.4390 O   0  0  0  0  0  0  0  0  0  0  0  0
   29.6100   74.3414   30.1723 P   0  0  2  0  0  0  0  0  0  0  0  0
   30.9408   74.8467   29.6337 O   0  0  0  0  0  0  0  0  0  0  0  0
   29.9653   73.1188   31.2818 O   0  0  0  0  0  0  0  0  0  0  0  0
   28.7661   75.5438   30.9832 O   0  0  0  0  0  0  0  0  0  0  0  0
  1  2  2  0
  2  3  1  0
  3  4  1  0
  4  5  1  0
  1  6  1  0
  5  6  1  0
  1  7  1  0
  3  8  1  1
  4  9  1  1
  5 10  1  1
  7 11  1  0
  7 12  2  0
  8 13  1  0
 13 14  2  0
 13 15  1  1
 13 16  1  0
M  END
$$$$
