
     RDKit          3D

 20 20  0  0  0  0  0  0  0  0999 V2000
    5.3781   54.7103    9.0510 N   0  0  0  0  0  0  0  0  0  0  0  0
    4.6410   54.9523    7.9425 C   0  0  0  0  0  0  0  0  0  0  0  0
    5.1720   56.0235    7.0371 C   0  0  0  0  0  0  0  0  0  0  0  0
    3.4591   54.2562    7.6620 C   0  0  0  0  0  0  0  0  0  0  0  0
    2.7040   54.5127    6.5482 O   0  0  0  0  0  0  0  0  0  0  0  0
    3.0109   53.2608    8.5464 C   0  0  0  0  0  0  0  0  0  0  0  0
    1.7260   52.5076    8.2689 C   0  0  0  0  0  0  0  0  0  0  0  0
    3.7835   52.9948    9.6985 C   0  0  0  0  0  0  0  0  0  0  0  0
    4.9319   53.7564    9.8975 C   0  0  0  0  0  0  0  0  0  0  0  0
    3.4099   51.9638   10.7300 C   0  0  0  0  0  0  0  0  0  0  0  0
    3.4912   50.6783   10.1521 O   0  0  0  0  0  0  0  0  0  0  0  0
    2.5018   49.5706   10.7399 P   0  0  1  0  0  5  0  0  0  0  0  0
    2.5336   49.2760   12.2000 O   0  0  0  0  0  0  0  0  0  0  0  0
    1.0792   50.0256   10.1703 O   0  0  0  0  0  0  0  0  0  0  0  0
    2.7532   48.3087    9.7950 O   0  0  0  0  0  0  0  0  0  0  0  0
   -0.4529   53.8233    5.6819 C   0  0  0  0  0  0  0  0  0  0  0  0
   -0.0891   53.8367    4.5127 O   0  0  0  0  0  0  0  0  0  0  0  0
   -1.2334   54.8126    6.1643 O   0  0  0  0  0  0  0  0  0  0  0  0
   -0.1439   52.7661    6.7341 C   0  0  0  0  0  0  0  0  0  0  0  0
    1.3121   52.6127    6.8708 N   0  0  0  0  0  0  0  0  0  0  0  0
  1  2  4  0
  2  3  1  0
  2  4  4  0
  4  5  1  0
  4  6  4  0
  6  7  1  0
  6  8  4  0
  1  9  4  0
  8  9  4  0
  8 10  1  0
 10 11  1  0
 11 12  1  0
 12 13  2  0
 12 14  1  0
 12 15  1  0
 16 17  2  0
 16 18  1  0
 16 19  1  0
  7 20  1  0
 19 20  1  0
M  END
