7NGW_UAW_A_301
     RDKit          3D

 35 36  0  0  0  0  0  0  0  0999 V2000
   -5.4250   -7.6268    7.3510 C   0  0  0  0  0  0  0  0  0  0  0  0
   -5.6090   -5.3342    8.4171 C   0  0  0  0  0  0  0  0  0  0  0  0
   -7.5906   -6.0266    6.9934 C   0  0  0  0  0  0  0  0  0  0  0  0
   -7.0136   -7.2811    6.7415 C   0  0  0  0  0  0  0  0  0  0  0  0
   -8.8244   -5.7086    6.3958 C   0  0  0  0  0  0  0  0  0  0  0  0
   -9.4799   -6.6439    5.5890 C   0  0  0  0  0  0  0  0  0  0  0  0
   -8.9084   -7.8990    5.3588 C   0  0  0  0  0  0  0  0  0  0  0  0
   -7.6713   -8.2150    5.9353 C   0  0  0  0  0  0  0  0  0  0  0  0
   -3.9429   -6.9870    9.3096 C   0  0  0  0  0  0  0  0  0  0  0  0
   -3.5893   -8.4805    9.2588 C   0  0  0  0  0  0  0  0  0  0  0  0
   -5.0346   -6.6546    8.3815 N   0  0  0  0  0  0  0  0  0  0  0  0
   -6.8844   -5.0750    7.8082 N   0  0  0  0  0  0  0  0  0  0  0  0
   -5.7515   -8.9909    7.9815 C   0  0  0  0  0  0  0  0  0  0  0  0
   -4.5400  -10.8221    9.2686 C   0  0  0  0  0  0  0  0  0  0  0  0
   -4.8745   -9.3271    9.2184 C   0  0  1  0  0  0  0  0  0  0  0  0
   -5.0164   -4.4141    9.0451 O   0  0  0  0  0  0  0  0  0  0  0  0
   -9.5738   -8.8210    4.5540 O   0  0  0  0  0  0  0  0  0  0  0  0
   -4.5779   -7.7469    6.6410 H   0  0  0  0  0  0  0  0  0  0  0  0
   -6.2916   -7.2779    6.7519 H   0  0  0  0  0  0  0  0  0  0  0  0
   -6.0568   -7.5383    7.1785 H   0  0  0  0  0  0  0  0  0  0  0  0
   -9.2714   -4.7329    6.5320 H   0  0  0  0  0  0  0  0  0  0  0  0
  -10.4296   -6.3899    5.1354 H   0  0  0  0  0  0  0  0  0  0  0  0
   -7.2180   -9.1818    5.7577 H   0  0  0  0  0  0  0  0  0  0  0  0
   -3.0427   -6.3837    9.0631 H   0  0  0  0  0  0  0  0  0  0  0  0
   -4.2598   -6.7353   10.3458 H   0  0  0  0  0  0  0  0  0  0  0  0
   -2.9853   -8.7403   10.1557 H   0  0  0  0  0  0  0  0  0  0  0  0
   -2.9708   -8.6875    8.3575 H   0  0  0  0  0  0  0  0  0  0  0  0
   -7.2621   -4.1025    7.8673 H   0  0  0  0  0  0  0  0  0  0  0  0
   -6.8198   -8.9974    8.2907 H   0  0  0  0  0  0  0  0  0  0  0  0
   -5.6394   -9.7660    7.1912 H   0  0  0  0  0  0  0  0  0  0  0  0
   -3.9201  -11.1139    8.3936 H   0  0  0  0  0  0  0  0  0  0  0  0
   -3.9805  -11.0589   10.1987 H   0  0  0  0  0  0  0  0  0  0  0  0
   -5.4753  -11.4217    9.2638 H   0  0  0  0  0  0  0  0  0  0  0  0
   -5.4623   -9.0890   10.1342 H   0  0  0  0  0  0  0  0  0  0  0  0
   -9.1851   -9.7380    4.3670 H   0  0  0  0  0  0  0  0  0  0  0  0
  3  4  4  0
  3  5  4  0
  5  6  4  0
  6  7  4  0
  4  8  4  0
  7  8  4  0
  9 10  1  0
  2 11  1  0
  9 11  1  0
  1 11  1  0
  3 12  1  0
  2 12  1  0
  1 13  1  0
 10 15  1  0
 13 15  1  0
 14 15  1  0
  2 16  2  0
  7 17  1  0
  1 18  1  0
  1 19  1  0
  4 20  1  0
  5 21  1  0
  6 22  1  0
  8 23  1  0
  9 24  1  0
  9 25  1  0
 10 26  1  0
 10 27  1  0
 12 28  1  0
 13 29  1  0
 13 30  1  0
 14 31  1  0
 14 32  1  0
 14 33  1  0
 15 34  1  1
 17 35  1  0
M  END
