7C3U_AZG_B_202
     RDKit          3D

 15 16  0  0  0  0  0  0  0  0999 V2000
   30.9691   33.3906   37.2329 C   0  0  0  0  0  0  0  0  0  0  0  0
   29.7673   34.0120   37.2697 N   0  0  0  0  0  0  0  0  0  0  0  0
   28.8823   33.6348   38.2455 C   0  0  0  0  0  0  0  0  0  0  0  0
   27.6042   34.2612   38.3239 N   0  0  0  0  0  0  0  0  0  0  0  0
   29.2204   32.6554   39.1497 N   0  0  0  0  0  0  0  0  0  0  0  0
   30.4357   32.0318   39.1073 C   0  0  0  0  0  0  0  0  0  0  0  0
   30.7536   31.0430   40.0347 O   0  0  0  0  0  0  0  0  0  0  0  0
   31.3174   32.4292   38.1103 C   0  0  0  0  0  0  0  0  0  0  0  0
   32.5562   32.0270   37.8017 N   0  0  0  0  0  0  0  0  0  0  0  0
   32.9337   32.7487   36.7480 N   0  0  0  0  0  0  0  0  0  0  0  0
   31.9774   33.5999   36.3717 N   0  0  0  0  0  0  0  0  0  0  0  0
   27.3377   35.0058   37.6422 H   0  0  0  0  0  0  0  0  0  0  0  0
   26.9229   33.9808   39.0638 H   0  0  0  0  0  0  0  0  0  0  0  0
   31.6480   30.5682   40.0214 H   0  0  0  0  0  0  0  0  0  0  0  0
   33.1363   31.2978   38.2718 H   0  0  0  0  0  0  0  0  0  0  0  0
  1  2  2  0
  2  3  1  0
  3  4  1  0
  3  5  2  0
  5  6  1  0
  6  7  1  0
  1  8  1  0
  6  8  2  0
  8  9  1  0
  9 10  1  0
  1 11  1  0
 10 11  2  0
  4 12  1  0
  4 13  1  0
  7 14  1  0
  9 15  1  0
M  END
