7UJF_R3V_A_601
     RDKit          3D

 32 36  0  0  0  0  0  0  0  0999 V2000
   -2.5487  -12.2030  -67.3459 C   0  0  0  0  0  0  0  0  0  0  0  0
   -2.5341  -12.7507  -68.7285 C   0  0  1  0  0  0  0  0  0  0  0  0
   -2.5948  -14.2646  -68.7588 C   0  0  0  0  0  0  0  0  0  0  0  0
   -3.7783  -12.1990  -69.3740 C   0  0  0  0  0  0  0  0  0  0  0  0
   -4.0511  -10.9546  -68.5483 C   0  0  0  0  0  0  0  0  0  0  0  0
   -3.7486  -11.3583  -67.2082 N   0  0  0  0  0  0  0  0  0  0  0  0
   -4.7695  -12.1942  -66.6675 C   0  0  0  0  0  0  0  0  0  0  0  0
   -4.9684  -12.1335  -65.2035 C   0  0  0  0  0  0  0  0  0  0  0  0
   -5.0911  -13.3424  -64.5131 O   0  0  0  0  0  0  0  0  0  0  0  0
   -4.2585  -13.6943  -63.4516 C   0  0  0  0  0  0  0  0  0  0  0  0
   -4.4440  -13.0851  -62.2367 C   0  0  0  0  0  0  0  0  0  0  0  0
   -3.6349  -13.4099  -61.1531 C   0  0  0  0  0  0  0  0  0  0  0  0
   -3.2594  -14.6223  -63.5579 C   0  0  0  0  0  0  0  0  0  0  0  0
   -2.4591  -14.9433  -62.4851 C   0  0  0  0  0  0  0  0  0  0  0  0
   -2.6219  -14.3391  -61.2269 C   0  0  0  0  0  0  0  0  0  0  0  0
   -1.7441  -14.7053  -60.0984 C   0  0  2  0  0  0  0  0  0  0  0  0
   -0.3990  -15.0905  -60.4779 C   0  0  0  0  0  0  0  0  0  0  0  0
    0.0562  -14.7076  -61.7469 C   0  0  0  0  0  0  0  0  0  0  0  0
    1.3332  -15.0336  -62.1663 C   0  0  0  0  0  0  0  0  0  0  0  0
    2.2199  -15.7410  -61.3788 C   0  0  0  0  0  0  0  0  0  0  0  0
    3.4881  -16.0507  -61.8275 O   0  0  0  0  0  0  0  0  0  0  0  0
    1.7665  -16.1241  -60.1114 C   0  0  0  0  0  0  0  0  0  0  0  0
    0.4927  -15.7914  -59.7101 C   0  0  0  0  0  0  0  0  0  0  0  0
    0.0596  -16.2278  -58.3690 C   0  0  0  0  0  0  0  0  0  0  0  0
   -1.3388  -15.8987  -58.0080 C   0  0  0  0  0  0  0  0  0  0  0  0
   -2.3263  -15.6757  -59.1109 C   0  0  2  0  0  0  0  0  0  0  0  0
   -2.8534  -16.9228  -59.6542 C   0  0  0  0  0  0  0  0  0  0  0  0
   -2.3279  -17.6935  -60.6515 C   0  0  0  0  0  0  0  0  0  0  0  0
   -2.9314  -18.8755  -61.0947 C   0  0  0  0  0  0  0  0  0  0  0  0
   -4.1063  -19.3200  -60.5302 C   0  0  0  0  0  0  0  0  0  0  0  0
   -4.6512  -18.5568  -59.5235 C   0  0  0  0  0  0  0  0  0  0  0  0
   -4.0534  -17.3973  -59.0934 C   0  0  0  0  0  0  0  0  0  0  0  0
  1  2  1  0
  2  3  1  1
  2  4  1  0
  4  5  1  6
  1  6  1  6
  5  6  1  6
  7  6  1  1
  7  8  1  0
  8  9  1  6
  9 10  1  0
 10 11  2  0
 11 12  1  0
 10 13  1  0
 13 14  2  0
 14 15  1  0
 12 15  2  0
 16 15  1  6
 16 17  1  0
 17 18  2  0
 18 19  1  0
 19 20  2  0
 20 21  1  0
 20 22  1  0
 17 23  1  0
 22 23  2  0
 24 23  1  1
 25 24  1  6
 16 26  1  0
 25 26  1  0
 26 27  1  6
 27 28  2  0
 28 29  1  0
 29 30  2  0
 30 31  1  0
 31 32  2  0
 27 32  1  0
M  END
$$$$
