7MRH_ZMJ_A_201
     RDKit          3D

 24 26  0  0  0  0  0  0  0  0999 V2000
  -22.5115    4.5303  -34.8978 C   0  0  0  0  0  0  0  0  0  0  0  0
  -21.0506    4.3465  -36.7643 C   0  0  0  0  0  0  0  0  0  0  0  0
  -21.9254    5.1603  -37.4960 C   0  0  0  0  0  0  0  0  0  0  0  0
  -23.3543    5.3286  -35.6420 C   0  0  0  0  0  0  0  0  0  0  0  0
  -26.1232    8.3874  -37.3424 C   0  0  0  0  0  0  0  0  0  0  0  0
  -26.8088    7.5648  -36.2476 C   0  0  0  0  0  0  0  0  0  0  0  0
  -24.1543    4.6845  -33.1311 C   0  0  0  0  0  0  0  0  0  0  0  0
  -23.8065    3.6725  -31.0167 C   0  0  0  0  0  0  0  0  0  0  0  0
  -22.5450    3.1882  -31.3728 C   0  0  0  0  0  0  0  0  0  0  0  0
  -21.7860    2.4733  -30.4967 C   0  0  0  0  0  0  0  0  0  0  0  0
  -20.5308    2.0174  -30.8880 C   0  0  0  0  0  0  0  0  0  0  0  0
  -20.1205    2.3265  -32.1759 C   0  0  0  0  0  0  0  0  0  0  0  0
  -20.8892    3.0423  -33.0430 C   0  0  0  0  0  0  0  0  0  0  0  0
  -22.1318    3.4918  -32.6539 C   0  0  0  0  0  0  0  0  0  0  0  0
  -22.8983    4.2200  -33.5326 C   0  0  0  0  0  0  0  0  0  0  0  0
  -25.8569    4.8309  -31.3703 C   0  0  0  0  0  0  0  0  0  0  0  0
  -21.3535    4.0350  -35.4594 C   0  0  0  0  0  0  0  0  0  0  0  0
  -23.0700    5.6626  -36.9782 C   0  0  0  0  0  0  0  0  0  0  0  0
  -24.5584    4.3896  -31.8825 N   0  0  0  0  0  0  0  0  0  0  0  0
  -24.0314    6.4682  -37.6187 N   0  0  0  0  0  0  0  0  0  0  0  0
  -24.2070    3.4129  -29.8630 O   0  0  0  0  0  0  0  0  0  0  0  0
  -23.7863    8.9521  -38.4594 O   0  0  0  0  0  0  0  0  0  0  0  0
  -23.7463    8.6091  -36.0710 O   0  0  0  0  0  0  0  0  0  0  0  0
  -24.3870    8.0998  -37.3581 S   0  0  1  0  0  0  0  0  0  0  0  0
  2  3  2  0
  1  4  1  0
  5  6  1  0
  8  9  1  0
  9 10  1  0
 10 11  2  0
 11 12  1  0
 12 13  2  0
  9 14  2  0
 13 14  1  0
  7 15  2  0
  1 15  1  0
 14 15  1  0
  1 17  2  0
  2 17  1  0
  4 18  2  0
  3 18  1  0
 16 19  1  0
  7 19  1  0
  8 19  1  0
 18 20  1  0
  8 21  2  0
 22 24  2  0
 24  5  1  1
 23 24  2  0
 20 24  1  0
M  END
$$$$
