1UOU_CMU_A_1481
     RDKit          3D

 27 28  0  0  0  0  0  0  0  0999 V2000
    3.5468    0.3806    2.2981 Cl  0  0  0  0  0  0  0  0  0  0  0  0
    1.9554   -0.3722    2.4344 C   0  0  0  0  0  0  0  0  0  0  0  0
    0.7622    0.3685    2.3143 C   0  0  0  0  0  0  0  0  0  0  0  0
    0.7718    1.8484    2.0180 C   0  0  0  0  0  0  0  0  0  0  0  0
    1.9234    2.1919    1.1831 N   0  0  0  0  0  0  0  0  0  0  0  0
    3.2937    1.8212    1.4916 C   0  0  0  0  0  0  0  0  0  0  0  0
    4.1498    2.3501    0.3257 C   0  0  0  0  0  0  0  0  0  0  0  0
    3.1832    2.7608   -0.7947 C   0  0  0  0  0  0  0  0  0  0  0  0
    1.8589    2.6950   -0.1393 C   0  0  0  0  0  0  0  0  0  0  0  0
    0.7508    3.0449   -0.7100 N   0  0  0  0  0  0  0  0  0  0  0  0
   -0.4352   -0.2764    2.4195 N   0  0  0  0  0  4  0  0  0  0  0  0
   -0.4989   -1.6151    2.6510 C   0  0  0  0  0  0  0  0  0  0  0  0
   -1.6195   -2.1840    2.7477 O   0  0  0  0  0  0  0  0  0  0  0  0
    0.6431   -2.3412    2.7769 N   0  0  0  0  0  4  0  0  0  0  0  0
    1.8620   -1.7487    2.6725 C   0  0  0  0  0  0  0  0  0  0  0  0
    2.9065   -2.4449    2.7901 O   0  0  0  0  0  0  0  0  0  0  0  0
    0.7932    2.4508    2.9494 H   0  0  0  0  0  0  0  0  0  0  0  0
   -0.1688    2.1301    1.4977 H   0  0  0  0  0  0  0  0  0  0  0  0
    3.3776    0.7146    1.5488 H   0  0  0  0  0  0  0  0  0  0  0  0
    3.6078    2.2740    2.4567 H   0  0  0  0  0  0  0  0  0  0  0  0
    4.7297    3.2374    0.6622 H   0  0  0  0  0  0  0  0  0  0  0  0
    4.8599    1.5719   -0.0294 H   0  0  0  0  0  0  0  0  0  0  0  0
    3.3962    3.7907   -1.1539 H   0  0  0  0  0  0  0  0  0  0  0  0
    3.2240    2.0368   -1.6367 H   0  0  0  0  0  0  0  0  0  0  0  0
    0.7368    3.4066   -1.6897 H   0  0  0  0  0  0  0  0  0  0  0  0
   -1.3259    0.2623    2.3233 H   0  0  0  0  0  0  0  0  0  0  0  0
    0.5828   -3.3701    2.9546 H   0  0  0  0  0  0  0  0  0  0  0  0
  1  2  1  0
  2  3  4  0
  3  4  1  0
  4  5  1  0
  5  6  1  0
  6  7  1  0
  7  8  1  0
  5  9  1  0
  8  9  1  0
  9 10  2  3
  3 11  4  0
 11 12  4  0
 12 13  2  0
 12 14  4  0
  2 15  4  0
 14 15  4  0
 15 16  2  0
  4 17  1  0
  4 18  1  0
  6 19  1  0
  6 20  1  0
  7 21  1  0
  7 22  1  0
  8 23  1  0
  8 24  1  0
 10 25  1  0
 11 26  1  0
 14 27  1  0
M  CHG  2  11   1  14   1
M  END
