1OQ5_CEL_A_701
     RDKit          3D

 40 42  0  0  0  0  0  0  0  0999 V2000
   -2.7993    1.7347    3.7120 S   0  0  0  0  0  6  0  0  0  0  0  0
   -1.5708    0.9194    2.7505 C   0  0  0  0  0  0  0  0  0  0  0  0
   -0.2260    1.2963    2.8616 C   0  0  0  0  0  0  0  0  0  0  0  0
    0.7525    0.6430    2.1067 C   0  0  0  0  0  0  0  0  0  0  0  0
    0.3971   -0.3888    1.2250 C   0  0  0  0  0  0  0  0  0  0  0  0
   -0.9485   -0.7849    1.1397 C   0  0  0  0  0  0  0  0  0  0  0  0
   -1.9263   -0.1309    1.8942 C   0  0  0  0  0  0  0  0  0  0  0  0
    1.4141   -1.0617    0.4637 N   0  0  0  0  0  0  0  0  0  0  0  0
    1.3540   -1.4836   -0.8235 C   0  0  0  0  0  0  0  0  0  0  0  0
    0.2804   -1.1844   -1.7974 C   0  0  0  0  0  0  0  0  0  0  0  0
   -0.1457   -2.1720   -2.6997 C   0  0  0  0  0  0  0  0  0  0  0  0
   -1.1527   -1.8941   -3.6287 C   0  0  0  0  0  0  0  0  0  0  0  0
   -1.7489   -0.6251   -3.6678 C   0  0  0  0  0  0  0  0  0  0  0  0
   -2.8022   -0.3159   -4.6899 C   0  0  0  0  0  0  0  0  0  0  0  0
   -1.2990    0.3740   -2.7923 C   0  0  0  0  0  0  0  0  0  0  0  0
   -0.2917    0.0968   -1.8639 C   0  0  0  0  0  0  0  0  0  0  0  0
    2.5146   -2.1742   -1.1160 C   0  0  0  0  0  0  0  0  0  0  0  0
    3.2560   -2.1062    0.0481 C   0  0  0  0  0  0  0  0  0  0  0  0
    4.5878   -2.7467    0.2759 C   0  0  0  0  0  0  0  0  0  0  0  0
    5.2116   -2.1688    1.3667 F   0  0  0  0  0  0  0  0  0  0  0  0
    4.4130   -4.0967    0.5150 F   0  0  0  0  0  0  0  0  0  0  0  0
    5.3878   -2.5805   -0.8399 F   0  0  0  0  0  0  0  0  0  0  0  0
    2.5663   -1.4413    0.9953 N   0  0  0  0  0  0  0  0  0  0  0  0
   -2.9410    0.9519    5.2465 N   0  0  0  0  0  0  0  0  0  0  0  0
   -4.1215    1.6831    2.9989 O   0  0  0  0  0  0  0  0  0  0  0  0
   -2.4152    3.1744    3.9117 O   0  0  0  0  0  0  0  0  0  0  0  0
    0.0659    2.0934    3.5334 H   0  0  0  0  0  0  0  0  0  0  0  0
    1.7872    0.9483    2.1992 H   0  0  0  0  0  0  0  0  0  0  0  0
   -1.2391   -1.6078    0.4995 H   0  0  0  0  0  0  0  0  0  0  0  0
   -2.9579   -0.4494    1.8157 H   0  0  0  0  0  0  0  0  0  0  0  0
    0.2933   -3.1619   -2.6778 H   0  0  0  0  0  0  0  0  0  0  0  0
   -1.4682   -2.6692   -4.3163 H   0  0  0  0  0  0  0  0  0  0  0  0
   -3.3932   -1.2252   -4.9307 H   0  0  0  0  0  0  0  0  0  0  0  0
   -3.5027    0.4575   -4.3087 H   0  0  0  0  0  0  0  0  0  0  0  0
   -2.3189    0.0580   -5.6165 H   0  0  0  0  0  0  0  0  0  0  0  0
   -1.7246    1.3692   -2.8313 H   0  0  0  0  0  0  0  0  0  0  0  0
    0.0509    0.8881   -1.2092 H   0  0  0  0  0  0  0  0  0  0  0  0
    2.7955   -2.6366   -2.0535 H   0  0  0  0  0  0  0  0  0  0  0  0
   -3.6296    1.5015    5.8077 H   0  0  0  0  0  0  0  0  0  0  0  0
   -2.0171    1.0481    5.7245 H   0  0  0  0  0  0  0  0  0  0  0  0
  1  2  1  0
  2  3  2  0
  3  4  1  0
  4  5  2  0
  5  6  1  0
  2  7  1  0
  6  7  2  0
  5  8  1  0
  8  9  1  0
  9 10  1  0
 10 11  2  0
 11 12  1  0
 12 13  2  0
 13 14  1  0
 13 15  1  0
 10 16  1  0
 15 16  2  0
  9 17  2  0
 17 18  1  0
 18 19  1  0
 19 20  1  0
 19 21  1  0
 19 22  1  0
  8 23  1  0
 18 23  2  0
  1 24  1  0
  1 25  2  0
  1 26  2  0
  3 27  1  0
  4 28  1  0
  6 29  1  0
  7 30  1  0
 11 31  1  0
 12 32  1  0
 14 33  1  0
 14 34  1  0
 14 35  1  0
 15 36  1  0
 16 37  1  0
 17 38  1  0
 24 39  1  0
 24 40  1  0
M  END
