1TOW_CRZ_A_501
     RDKit          3D

 34 36  0  0  0  0  0  0  0  0999 V2000
   20.0298    6.9130    1.8552 O   0  0  0  0  0  0  0  0  0  0  0  0
   19.1862    6.0861    2.5913 C   0  0  0  0  0  0  0  0  0  0  0  0
   18.4976    5.2110    2.0017 O   0  0  0  0  0  0  0  0  0  0  0  0
   19.0511    6.2693    4.0745 C   0  0  1  0  0  0  0  0  0  0  0  0
   20.4090    6.3967    4.7856 C   0  0  2  0  0  0  0  0  0  0  0  0
   21.3225    5.1739    4.5999 C   0  0  1  0  0  0  0  0  0  0  0  0
   21.2134    4.6100    3.2491 N   0  0  0  0  0  0  0  0  0  0  0  0
   21.7815    5.0913    2.1138 C   0  0  0  0  0  0  0  0  0  0  0  0
   22.6187    6.2032    1.9756 C   0  0  0  0  0  0  0  0  0  0  0  0
   21.4294    4.3286    1.0179 C   0  0  0  0  0  0  0  0  0  0  0  0
   21.8768    4.6258   -0.2680 C   0  0  0  0  0  0  0  0  0  0  0  0
   22.7164    5.7418   -0.4268 C   0  0  0  0  0  0  0  0  0  0  0  0
   23.0858    6.5251    0.6883 C   0  0  0  0  0  0  0  0  0  0  0  0
   20.6110    3.3281    1.4887 C   0  0  0  0  0  0  0  0  0  0  0  0
   20.4990    3.5239    2.8522 C   0  0  0  0  0  0  0  0  0  0  0  0
   19.7088    2.6736    3.6350 C   0  0  0  0  0  0  0  0  0  0  0  0
   19.9573    2.2881    0.8309 C   0  0  0  0  0  0  0  0  0  0  0  0
   19.1630    1.4228    1.6021 C   0  0  0  0  0  0  0  0  0  0  0  0
   19.0390    1.6151    2.9949 C   0  0  0  0  0  0  0  0  0  0  0  0
   20.5433    6.5547    1.0588 H   0  0  0  0  0  0  0  0  0  0  0  0
   18.4713    7.2010    4.2468 H   0  0  0  0  0  0  0  0  0  0  0  0
   18.4701    5.4300    4.5154 H   0  0  0  0  0  0  0  0  0  0  0  0
   20.2130    6.5029    5.8747 H   0  0  0  0  0  0  0  0  0  0  0  0
   20.9317    7.3237    4.4675 H   0  0  0  0  0  0  0  0  0  0  0  0
   22.3746    5.4834    4.7783 H   0  0  0  0  0  0  0  0  0  0  0  0
   21.0916    4.4094    5.3697 H   0  0  0  0  0  0  0  0  0  0  0  0
   22.9071    6.8046    2.8270 H   0  0  0  0  0  0  0  0  0  0  0  0
   21.5895    4.0209   -1.1182 H   0  0  0  0  0  0  0  0  0  0  0  0
   23.0830    6.0020   -1.4113 H   0  0  0  0  0  0  0  0  0  0  0  0
   23.7342    7.3807    0.5518 H   0  0  0  0  0  0  0  0  0  0  0  0
   19.5966    2.8168    4.7002 H   0  0  0  0  0  0  0  0  0  0  0  0
   20.0527    2.1498   -0.2383 H   0  0  0  0  0  0  0  0  0  0  0  0
   18.6400    0.6050    1.1239 H   0  0  0  0  0  0  0  0  0  0  0  0
   18.4198    0.9437    3.5756 H   0  0  0  0  0  0  0  0  0  0  0  0
  1  2  1  0
  2  3  2  0
  2  4  1  0
  4  5  1  0
  5  6  1  0
  6  7  1  0
  7  8  1  0
  8  9  2  0
  8 10  1  0
 10 11  2  0
 11 12  1  0
  9 13  1  0
 12 13  2  0
 10 14  1  0
  7 15  1  0
 14 15  2  0
 15 16  1  0
 14 17  1  0
 17 18  2  0
 16 19  2  0
 18 19  1  0
  1 20  1  0
  4 21  1  6
  4 22  1  0
  5 23  1  1
  5 24  1  0
  6 25  1  1
  6 26  1  0
  9 27  1  0
 11 28  1  0
 12 29  1  0
 13 30  1  0
 16 31  1  0
 17 32  1  0
 18 33  1  0
 19 34  1  0
M  END
