7RNI_60I_B_502
     RDKit          3D

 31 34  0  0  0  0  0  0  0  0999 V2000
  187.1346  130.0596   37.5848 N   0  0  0  0  0  0  0  0  0  0  0  0
  184.7247  129.1479   35.0254 C   0  0  0  0  0  0  0  0  0  0  0  0
  188.8257  128.4871   34.0497 O   0  0  0  0  0  0  0  0  0  0  0  0
  185.8859  129.3869   35.9132 C   0  0  0  0  0  0  0  0  0  0  0  0
  187.4995  126.4535   32.7368 C   0  0  0  0  0  0  0  0  0  0  0  0
  184.9203  125.3842   31.4383 C   0  0  0  0  0  0  0  0  0  0  0  0
  184.0733  124.2617   31.0204 C   0  0  0  0  0  0  0  0  0  0  0  0
  183.2902  122.1964   30.9143 C   0  0  0  0  0  0  0  0  0  0  0  0
  183.0692  120.8510   31.0790 C   0  0  0  0  0  0  0  0  0  0  0  0
  182.0110  120.2964   30.3974 C   0  0  0  0  0  0  0  0  0  0  0  0
  181.1924  121.0647   29.5707 C   0  0  0  0  0  0  0  0  0  0  0  0
  181.4708  122.4216   29.4474 C   0  0  0  0  0  0  0  0  0  0  0  0
  182.5293  123.0174   30.1191 C   0  0  0  0  0  0  0  0  0  0  0  0
  182.4139  125.3699   29.4580 C   0  0  0  0  0  0  0  0  0  0  0  0
  187.1588  128.9354   35.6659 C   0  0  0  0  0  0  0  0  0  0  0  0
  181.2193  126.0300   30.0213 C   0  0  1  0  0  0  0  0  0  0  0  0
  180.1679  125.1129   30.5953 C   0  0  0  0  0  0  0  0  0  0  0  0
  181.6769  126.8884   31.2274 C   0  0  0  0  0  0  0  0  0  0  0  0
  180.5435  127.0067   29.0946 C   0  0  0  0  0  0  0  0  0  0  0  0
  187.9252  129.3797   36.7459 C   0  0  0  0  0  0  0  0  0  0  0  0
  187.5743  130.6824   38.8358 C   0  0  0  0  0  0  0  0  0  0  0  0
  189.3754  129.1550   36.9656 C   0  0  0  0  0  0  0  0  0  0  0  0
  187.7092  128.1684   34.5761 C   0  0  0  0  0  0  0  0  0  0  0  0
  185.9793  126.3986   34.7082 C   0  0  0  0  0  0  0  0  0  0  0  0
  184.9429  125.7842   33.8065 C   0  0  0  0  0  0  0  0  0  0  0  0
  186.9506  125.0427   32.7172 C   0  0  0  0  0  0  0  0  0  0  0  0
  185.8960  130.0627   37.0765 N   0  0  0  0  0  0  0  0  0  0  0  0
  187.0750  127.0209   34.0068 N   0  0  0  0  0  0  0  0  0  0  0  0
  185.5311  125.0483   32.7102 N   0  0  0  0  0  0  0  0  0  0  0  0
  184.2301  122.9872   31.4549 N   0  0  0  0  0  0  0  0  0  0  0  0
  183.0050  124.2983   30.1763 N   0  0  0  0  0  0  0  0  0  0  0  0
  2  4  1  0
  6  7  1  0
  8  9  2  0
  9 10  1  0
 10 11  2  0
 11 12  1  0
  8 13  1  0
 12 13  2  0
  4 15  1  0
 14 16  1  0
 16 17  1  1
 16 18  1  0
 16 19  1  0
  1 20  1  0
 15 20  2  0
  1 21  1  0
 20 22  1  0
  3 23  2  0
 15 23  1  0
 24 25  1  0
  5 26  1  0
  1 27  1  0
  4 27  2  0
 23 28  1  0
 24 28  1  0
  5 28  1  0
  6 29  1  0
 25 29  1  0
 26 29  1  0
  8 30  1  0
  7 30  2  0
  7 31  1  0
 13 31  1  0
 14 31  1  0
M  END
$$$$
