@<TRIPOS>MOLECULE
1R1H_BIR_A_2001
 56 57 0 0 0
SMALL
GASTEIGER

@<TRIPOS>ATOM
      1 C          27.8590   41.3560   29.9450 C.3     0  UNK0       -0.0409
      2 C          27.7080   42.3620   31.0920 C.3     0  UNK0        0.0796
      3 N          26.4000   42.9990   31.0150 N.3     0  UNK0       -0.3198
      4 P          29.0160   43.5020   31.0260 P.3     0  UNK0        0.2188
      5 O          30.2300   42.6500   31.2230 O.2     0  UNK0       -0.2894
      6 O          28.9360   44.3150   29.7670 O.3     0  UNK0       -0.3426
      7 C          28.8610   44.5560   32.3940 C.3     0  UNK0        0.0371
      8 C          30.1480   44.7420   33.2110 C.3     0  UNK0        0.0482
      9 C          30.3750   43.5780   34.1410 C.2     0  UNK0        0.2176
     10 O          31.5010   43.1770   34.3910 O.2     0  UNK0       -0.2755
     11 N          29.3100   42.9860   34.6650 N.am    1  ALA1       -0.3023
     12 CA         29.5280   41.9220   35.6310 C.3     1  ALA1        0.1174
     13 CB         29.4470   42.4720   37.0530 C.3     1  ALA1       -0.0362
     14 C          28.5250   40.8350   35.4610 C.2     1  ALA1        0.3250
     15 O          27.6000   40.9770   34.6580 O.3     1  ALA1       -0.4793
     16 OXT        28.6470   39.8160   36.1230 O.2     1  ALA1       -0.2489
     17 C          30.0520   46.0510   34.0090 C.3     0  UNK0       -0.0161
     18 C          31.3280   46.3400   34.7470 C.ar    0  UNK0       -0.0466
     19 C          31.3180   46.4890   36.1320 C.ar    0  UNK0       -0.0580
     20 C          32.5010   46.7400   36.8190 C.ar    0  UNK0       -0.0538
     21 C          33.7170   46.8410   36.1310 C.ar    0  UNK0       -0.0179
     22 C          33.7170   46.6950   34.7390 C.ar    0  UNK0       -0.0538
     23 C          32.5330   46.4480   34.0540 C.ar    0  UNK0       -0.0580
     24 C          34.9700   47.0860   36.8550 C.ar    0  UNK0       -0.0179
     25 C          36.1210   46.3480   36.5520 C.ar    0  UNK0       -0.0540
     26 C          37.3100   46.5740   37.2400 C.ar    0  UNK0       -0.0612
     27 C          37.3650   47.5440   38.2380 C.ar    0  UNK0       -0.0617
     28 C          36.2260   48.2850   38.5470 C.ar    0  UNK0       -0.0612
     29 C          35.0370   48.0560   37.8620 C.ar    0  UNK0       -0.0540
     30 H          27.0551   40.6508   29.9810 H       0  UNK0        0.0250
     31 H          28.7910   40.8398   30.0437 H       0  UNK0        0.0250
     32 H          27.8363   41.8753   29.0098 H       0  UNK0        0.0250
     33 H          27.7599   41.8678   32.0396 H       0  UNK0        0.0557
     34 H          26.3099   43.4836   30.1220 H       0  UNK0        0.1189
     35 H          26.3031   43.6699   31.7772 H       0  UNK0        0.1189
     36 H          29.0222   43.7298   28.9982 H       0  UNK0        0.2177
     37 H          28.1106   44.1531   33.0416 H       0  UNK0        0.0372
     38 H          28.6084   45.5203   32.0050 H       0  UNK0        0.0372
     39 H          30.9802   44.7878   32.5400 H       0  UNK0        0.0402
     40 H          28.3998   43.2589   34.4076 H       1  ALA1        0.1495
     41 HA         30.5044   41.5187   35.4611 H       1  ALA1        0.0611
     42 HB1        28.4710   42.8756   37.2242 H       1  ALA1        0.0253
     43 HB2        30.1788   43.2423   37.1797 H       1  ALA1        0.0253
     44 HB3        29.6345   41.6835   37.7516 H       1  ALA1        0.0253
     45 H          27.5279   41.7684   34.1616 H       1  ALA1        0.2951
     46 H          29.2524   45.9699   34.7154 H       0  UNK0        0.0321
     47 H          29.8729   46.8512   33.3216 H       0  UNK0        0.0321
     48 H          30.4290   46.4128   36.6505 H       0  UNK0        0.0620
     49 H          32.4828   46.8528   37.8447 H       0  UNK0        0.0624
     50 H          34.6038   46.7714   34.2167 H       0  UNK0        0.0624
     51 H          32.5459   46.3440   33.0273 H       0  UNK0        0.0620
     52 H          36.0875   45.6298   35.8117 H       0  UNK0        0.0624
     53 H          38.1514   46.0223   37.0103 H       0  UNK0        0.0618
     54 H          38.2466   47.7134   38.7471 H       0  UNK0        0.0618
     55 H          36.2646   49.0050   39.2854 H       0  UNK0        0.0618
     56 H          34.1966   48.6063   38.0984 H       0  UNK0        0.0624
@<TRIPOS>BOND
     1     2     1    1
     2     2     3    1
     3     2     4    1
     4     4     5    2
     5     4     6    1
     6     4     7    1
     7     8     7    1
     8     8     9    1
     9     9    10    2
    10     9    11   am
    11    11    12    1
    12    12    13    1
    13    12    14    1
    14    14    15    1
    15    14    16    2
    16     8    17    1
    17    17    18    1
    18    18    19   ar
    19    19    20   ar
    20    20    21   ar
    21    21    22   ar
    22    18    23   ar
    23    22    23   ar
    24    21    24    1
    25    24    25   ar
    26    25    26   ar
    27    26    27   ar
    28    27    28   ar
    29    24    29   ar
    30    28    29   ar
    31     1    30    1
    32     1    31    1
    33     1    32    1
    34     2    33    1
    35     3    34    1
    36     3    35    1
    37     6    36    1
    38     7    37    1
    39     7    38    1
    40     8    39    1
    41    11    40    1
    42    12    41    1
    43    13    42    1
    44    13    43    1
    45    13    44    1
    46    15    45    1
    47    17    46    1
    48    17    47    1
    49    19    48    1
    50    20    49    1
    51    22    50    1
    52    23    51    1
    53    25    52    1
    54    26    53    1
    55    27    54    1
    56    28    55    1
    57    29    56    1
