@<TRIPOS>MOLECULE
1P62_GEO_B_302
 29 30 0 0 0
SMALL
GASTEIGER

@<TRIPOS>ATOM
      1 O          -1.7707   -3.9873    1.0163 O.3     1  UNL1       -0.3924
      2 C          -0.8103   -3.0992    0.5074 C.3     1  UNL1        0.0731
      3 C          -0.6211   -1.9093    1.4587 C.3     1  UNL1        0.1159
      4 O           0.5170   -1.1756    1.0522 O.3     1  UNL1       -0.3422
      5 C           0.1161    0.1588    0.8273 C.3     1  UNL1        0.2055
      6 N           0.8155    0.7333   -0.3420 N.ar    1  UNL1       -0.2670
      7 C           1.1308   -0.0622   -1.4120 C.ar    1  UNL1        0.0153
      8 C           1.7663    0.4696   -2.5316 C.ar    1  UNL1       -0.0056
      9 C           2.0630    1.8304   -2.5479 C.ar    1  UNL1        0.1230
     10 N           1.7211    2.6013   -1.4854 N.ar    1  UNL1       -0.1783
     11 C           1.1017    2.0757   -0.3962 C.ar    1  UNL1        0.3523
     12 O           0.7935    2.8409    0.5572 O.2     1  UNL1       -0.2444
     13 N           2.7135    2.4194   -3.6741 N.pl3   1  UNL1       -0.3430
     14 C          -1.3941    0.1863    0.6431 C.3     1  UNL1        0.3207
     15 F          -1.7437   -0.0208   -0.6830 F       1  UNL1       -0.1978
     16 F          -1.9358    1.3844    1.0816 F       1  UNL1       -0.1978
     17 C          -1.8461   -0.9810    1.4778 C.3     1  UNL1        0.1508
     18 O          -2.1126   -0.5584    2.7913 O.3     1  UNL1       -0.3830
     19 H          -2.6296   -3.7797    0.5645 H       1  UNL1        0.2095
     20 H           0.1528   -3.6461    0.4215 H       1  UNL1        0.0584
     21 H          -1.0815   -2.7448   -0.5148 H       1  UNL1        0.0584
     22 H          -0.4286   -2.3130    2.4779 H       1  UNL1        0.0648
     23 H           0.3791    0.7302    1.7469 H       1  UNL1        0.0902
     24 H           0.8861   -1.1173   -1.4115 H       1  UNL1        0.0812
     25 H           2.0173   -0.1665   -3.3711 H       1  UNL1        0.0666
     26 H           2.9816    1.8422   -4.5023 H       1  UNL1        0.1437
     27 H           2.9300    3.4409   -3.6813 H       1  UNL1        0.1437
     28 H          -2.7604   -1.4410    1.0357 H       1  UNL1        0.0682
     29 H          -2.5841   -1.3092    3.2383 H       1  UNL1        0.2101
@<TRIPOS>BOND
     1     1     2    1
     2     3     2    1
     3     3     4    1
     4     4     5    1
     5     5     6    1
     6     6     7   ar
     7     7     8   ar
     8     8     9   ar
     9     9    10   ar
    10     6    11   ar
    11    10    11   ar
    12    11    12    2
    13     9    13    1
    14     5    14    1
    15    14    15    1
    16    14    16    1
    17     3    17    1
    18    14    17    1
    19    17    18    1
    20     1    19    1
    21     2    20    1
    22     2    21    1
    23     3    22    1
    24     5    23    1
    25     7    24    1
    26     8    25    1
    27    13    26    1
    28    13    27    1
    29    17    28    1
    30    18    29    1
