@<TRIPOS>MOLECULE
1OWE_675_A_1001
 37 39 0 0 0
SMALL
GASTEIGER

@<TRIPOS>ATOM
      1 N           0.9995    5.4314   -3.1496 N.2     1  UNL1       -0.0994
      2 C           0.8223    4.2283   -3.6006 C.2     1  UNL1        0.3081
      3 N           0.8962    4.0020   -5.0106 N.pl3   1  UNL1       -0.2466
      4 C           0.5565    3.0980   -2.6753 C.ar    1  UNL1        0.0653
      5 C          -0.2467    3.2775   -1.5351 C.ar    1  UNL1       -0.0463
      6 C          -0.5003    2.2117   -0.6682 C.ar    1  UNL1       -0.0532
      7 C           0.0450    0.9461   -0.9249 C.ar    1  UNL1       -0.0171
      8 C          -0.2051   -0.1292   -0.0581 C.ar    1  UNL1       -0.0419
      9 C           0.3457   -1.3984   -0.3149 C.ar    1  UNL1        0.0376
     10 C           1.1379   -1.5792   -1.4626 C.ar    1  UNL1       -0.0490
     11 C           1.3912   -0.5135   -2.3297 C.ar    1  UNL1       -0.0533
     12 C           0.8505    0.7529   -2.0699 C.ar    1  UNL1       -0.0170
     13 C           1.1001    1.8282   -2.9367 C.ar    1  UNL1       -0.0392
     14 C           0.0812   -2.5406    0.5940 C.2     1  UNL1        0.2483
     15 O           0.2676   -3.7182    0.1812 O.2     1  UNL1       -0.2699
     16 N          -0.3356   -2.3202    1.9522 N.am    1  UNL1       -0.2815
     17 C          -0.9948   -3.3136    2.7569 C.ar    1  UNL1        0.0337
     18 C          -0.8271   -3.2944    4.1510 C.ar    1  UNL1       -0.0405
     19 C          -1.4754   -4.2370    4.9552 C.ar    1  UNL1       -0.0600
     20 C          -2.3075   -5.1979    4.3757 C.ar    1  UNL1       -0.0616
     21 C          -2.4984   -5.2130    2.9918 C.ar    1  UNL1       -0.0600
     22 C          -1.8513   -4.2727    2.1837 C.ar    1  UNL1       -0.0405
     23 H           0.9794    5.6643   -2.1318 H       1  UNL1        0.3633
     24 H           1.1246    4.7880   -5.6593 H       1  UNL1        0.2884
     25 H           0.6720    3.0689   -5.4214 H       1  UNL1        0.2884
     26 H          -0.6976    4.2386   -1.3228 H       1  UNL1        0.0626
     27 H          -1.1258    2.3768    0.2012 H       1  UNL1        0.0624
     28 H          -0.8440    0.0230    0.8033 H       1  UNL1        0.0631
     29 H           1.5718   -2.5459   -1.6865 H       1  UNL1        0.0625
     30 H           2.0096   -0.6805   -3.2037 H       1  UNL1        0.0624
     31 H           1.7328    1.6798   -3.8041 H       1  UNL1        0.0632
     32 H          -0.0441   -1.4306    2.4166 H       1  UNL1        0.1551
     33 H          -0.1864   -2.5537    4.6129 H       1  UNL1        0.0636
     34 H          -1.3340   -4.2208    6.0282 H       1  UNL1        0.0618
     35 H          -2.8104   -5.9256    4.9994 H       1  UNL1        0.0618
     36 H          -3.1547   -5.9488    2.5453 H       1  UNL1        0.0618
     37 H          -2.0391   -4.2826    1.1183 H       1  UNL1        0.0636
@<TRIPOS>BOND
     1     1     2    2
     2     2     3    1
     3     2     4    1
     4     4     5   ar
     5     5     6   ar
     6     6     7   ar
     7     7     8   ar
     8     8     9   ar
     9     9    10   ar
    10    10    11   ar
    11     7    12   ar
    12    11    12   ar
    13     4    13   ar
    14    12    13   ar
    15     9    14    1
    16    14    15    2
    17    14    16   am
    18    16    17    1
    19    17    18   ar
    20    18    19   ar
    21    19    20   ar
    22    20    21   ar
    23    17    22   ar
    24    21    22   ar
    25     1    23    1
    26     3    24    1
    27     3    25    1
    28     5    26    1
    29     6    27    1
    30     8    28    1
    31    10    29    1
    32    11    30    1
    33    13    31    1
    34    16    32    1
    35    18    33    1
    36    19    34    1
    37    20    35    1
    38    21    36    1
    39    22    37    1
