6Z1C_7EY_A_501
     RDKit          3D

 36 38  0  0  0  0  0  0  0  0999 V2000
    0.5029   -3.5771    2.7165 C   0  0  0  0  0  0  0  0  0  0  0  0
    1.6982   -2.9057    2.9081 C   0  0  0  0  0  0  0  0  0  0  0  0
    2.3361   -3.0507    4.1565 C   0  0  0  0  0  0  0  0  0  0  0  0
    1.7336   -3.8167    5.1103 N   0  0  0  0  0  0  0  0  0  0  0  0
   -0.0735   -4.3343    3.6784 N   0  0  0  0  0  0  0  0  0  0  0  0
    3.3352   -3.6583    2.4218 O   0  0  0  0  0  0  0  0  0  0  0  0
    2.4039   -2.8470    2.1719 C   0  0  0  0  0  0  0  0  0  0  0  0
    1.1594   -3.3195    1.7670 O   0  0  0  0  0  0  0  0  0  0  0  0
    2.6451   -1.3731    2.2758 C   0  0  0  0  0  0  0  0  0  0  0  0
    3.8098   -1.0599    3.2155 C   0  0  0  0  0  0  0  0  0  0  0  0
    3.9192   -2.3018    4.5507 S   0  0  0  0  0  0  0  0  0  0  0  0
    0.5451   -4.4471    4.8845 C   0  0  0  0  0  0  0  0  0  0  0  0
   -0.0775   -3.3346    1.1651 S   0  0  0  0  0  0  0  0  0  0  0  0
    1.2048   -2.3452    0.6882 C   0  0  0  0  0  0  0  0  0  0  0  0
    2.0968   -2.1923    1.7530 C   0  0  0  0  0  0  0  0  0  0  0  0
    3.2952   -1.3491    1.6274 C   0  0  0  0  0  0  0  0  0  0  0  0
    4.5449   -1.8409    2.0285 C   0  0  0  0  0  0  0  0  0  0  0  0
    5.6843   -1.0393    1.9159 C   0  0  0  0  0  0  0  0  0  0  0  0
    5.5853    0.2623    1.4005 C   0  0  0  0  0  0  0  0  0  0  0  0
    6.8127    1.1113    1.2538 C   0  0  0  0  0  0  0  0  0  0  0  0
    4.3401    0.7369    0.9598 C   0  0  0  0  0  0  0  0  0  0  0  0
    3.2006   -0.0650    1.0722 C   0  0  0  0  0  0  0  0  0  0  0  0
    0.9847   -4.3133    1.6787 H   0  0  0  0  0  0  0  0  0  0  0  0
    1.7255   -0.8820    2.6611 H   0  0  0  0  0  0  0  0  0  0  0  0
    2.8531   -0.9550    1.2672 H   0  0  0  0  0  0  0  0  0  0  0  0
    3.6876   -0.0469    3.6561 H   0  0  0  0  0  0  0  0  0  0  0  0
    4.7500   -1.0708    2.6239 H   0  0  0  0  0  0  0  0  0  0  0  0
    0.0975   -5.0468    5.6650 H   0  0  0  0  0  0  0  0  0  0  0  0
    1.3095   -1.8892   -0.2876 H   0  0  0  0  0  0  0  0  0  0  0  0
    4.6337   -2.8390    2.4398 H   0  0  0  0  0  0  0  0  0  0  0  0
    6.6420   -1.4313    2.2354 H   0  0  0  0  0  0  0  0  0  0  0  0
    7.5480    0.8770    2.0527 H   0  0  0  0  0  0  0  0  0  0  0  0
    6.5550    2.1892    1.3304 H   0  0  0  0  0  0  0  0  0  0  0  0
    7.2783    0.9193    0.2647 H   0  0  0  0  0  0  0  0  0  0  0  0
    4.2507    1.7282    0.5327 H   0  0  0  0  0  0  0  0  0  0  0  0
    2.2438    0.3168    0.7373 H   0  0  0  0  0  0  0  0  0  0  0  0
  1  2  4  0
  2  3  4  0
  3  4  4  0
  1  5  4  0
  6  7  2  0
  7  8  1  0
  7  9  1  0
  9 10  1  0
  3 11  1  0
 10 11  1  0
  4 12  4  0
  5 12  4  0
  1 13  4  0
 13 14  4  0
  2 15  4  0
 14 15  4  0
 15 16  1  0
 16 17  4  0
 17 18  4  0
 18 19  4  0
 19 20  1  0
 19 21  4  0
 16 22  4  0
 21 22  4  0
  8 23  1  0
  9 24  1  0
  9 25  1  0
 10 26  1  0
 10 27  1  0
 12 28  1  0
 14 29  1  0
 17 30  1  0
 18 31  1  0
 20 32  1  0
 20 33  1  0
 20 34  1  0
 21 35  1  0
 22 36  1  0
M  END
