
     RDKit          3D

 33 37  0  0  0  0  0  0  0  0999 V2000
   20.6578    8.0692   12.7284 C   0  0  0  0  0  0  0  0  0  0  0  0
   19.4311    7.1746   13.0209 C   0  0  1  0  0  0  0  0  0  0  0  0
   18.1367    8.0120   12.9499 C   0  0  0  0  0  0  0  0  0  0  0  0
   19.7372    4.7806   12.3685 C   0  0  0  0  0  0  0  0  0  0  0  0
   21.5072    3.0905   12.1240 C   0  0  0  0  0  0  0  0  0  0  0  0
   20.6027    2.2801   12.8602 C   0  0  0  0  0  0  0  0  0  0  0  0
   19.3944    2.7258   13.2942 C   0  0  0  0  0  0  0  0  0  0  0  0
   18.7467    1.6959   13.9903 C   0  0  0  0  0  0  0  0  0  0  0  0
   14.7337   11.4227   14.6809 C   0  0  0  0  0  0  0  0  0  0  0  0
   15.9898   11.8670   15.0962 C   0  0  0  0  0  0  0  0  0  0  0  0
   17.1552   11.2438   14.6422 C   0  0  0  0  0  0  0  0  0  0  0  0
   17.0852   10.1616   13.7554 C   0  0  0  0  0  0  0  0  0  0  0  0
   15.8202    9.7311   13.3298 C   0  0  0  0  0  0  0  0  0  0  0  0
   14.6544   10.3572   13.7873 C   0  0  0  0  0  0  0  0  0  0  0  0
   18.3627    9.5043   13.2612 C   0  0  0  0  0  0  0  0  0  0  0  0
   19.5524    9.6993   14.2195 C   0  0  0  0  0  0  0  0  0  0  0  0
   19.6070    0.6128   13.9614 C   0  0  0  0  0  0  0  0  0  0  0  0
   21.8958    5.3154   11.2381 C   0  0  0  0  0  0  0  0  0  0  0  0
   21.6760   10.2208   13.1480 C   0  0  0  0  0  0  0  0  0  0  0  0
   13.8766   12.8446   16.4152 C   0  0  0  0  0  0  0  0  0  0  0  0
   12.9808   14.0557   16.5561 C   0  0  0  0  0  0  0  0  0  0  0  0
   12.7711   14.6239   17.8218 C   0  0  0  0  0  0  0  0  0  0  0  0
   11.9705   15.7584   17.9670 C   0  0  0  0  0  0  0  0  0  0  0  0
   11.3801   16.3438   16.8490 C   0  0  0  0  0  0  0  0  0  0  0  0
   11.5933   15.7988   15.5847 C   0  0  0  0  0  0  0  0  0  0  0  0
   12.3939   14.6648   15.4377 C   0  0  0  0  0  0  0  0  0  0  0  0
   20.8220    9.1720   13.6983 N   0  0  0  0  0  0  0  0  0  0  0  0
   19.3284    6.0653   12.0634 N   0  0  0  0  0  0  0  0  0  0  0  0
   21.0128    4.3833   11.9172 N   0  0  0  0  0  0  0  0  0  0  0  0
   18.9277    4.0067   13.0466 N   0  0  0  0  0  0  0  0  0  0  0  0
   20.7385    0.9817   13.2670 N   0  0  0  0  0  0  0  0  0  0  0  0
   22.5931    2.6792   11.7250 O   0  0  0  0  0  0  0  0  0  0  0  0
   13.6802   12.1275   15.1929 O   0  0  0  0  0  0  0  0  0  0  0  0
  1  2  1  0
  2  3  1  0
  5  6  4  0
  6  7  4  0
  7  8  4  0
  9 10  4  0
 10 11  4  0
 11 12  4  0
 12 13  4  0
 13 14  4  0
  9 14  4  0
  3 15  1  0
 15 12  1  0
 15 16  1  0
  8 17  4  0
 20 21  1  0
 21 22  4  0
 22 23  4  0
 23 24  4  0
 24 25  4  0
 21 26  4  0
 25 26  4  0
 19 27  1  0
  1 27  1  0
 16 27  1  0
  2 28  1  6
  4 28  1  0
  4 29  4  0
  5 29  4  0
 18 29  1  0
  7 30  4  0
  4 30  4  0
 17 31  4  0
  6 31  4  0
  5 32  2  0
  9 33  1  0
 20 33  1  0
M  END
