7WPW_F15_A_200
     RDKit          3D

 47 46  0  0  0  0  0  0  0  0999 V2000
   -0.6285    0.8471    0.3681 C   0  0  0  0  0  0  0  0  0  0  0  0
   -1.0228   -0.3031    1.0442 O   0  0  0  0  0  0  0  0  0  0  0  0
    0.2634    1.5908    0.8572 O   0  0  0  0  0  0  0  0  0  0  0  0
   -1.2860    1.2132   -0.9272 C   0  0  0  0  0  0  0  0  0  0  0  0
   -0.8139    0.3157   -2.0788 C   0  0  0  0  0  0  0  0  0  0  0  0
    0.9029   -1.5771   -1.9211 C   0  0  0  0  0  0  0  0  0  0  0  0
    1.7794   -1.6602   -0.6588 C   0  0  0  0  0  0  0  0  0  0  0  0
   -0.5331   -1.1237   -1.6139 C   0  0  0  0  0  0  0  0  0  0  0  0
    3.1890   -1.0816   -0.8737 C   0  0  0  0  0  0  0  0  0  0  0  0
    3.7547   -1.2617   -2.2962 C   0  0  0  0  0  0  0  0  0  0  0  0
    2.6686   -1.3370   -3.3933 C   0  0  0  0  0  0  0  0  0  0  0  0
    1.2347   -1.2951   -2.8348 C   0  0  0  0  0  0  0  0  0  0  0  0
    1.2015   -1.4751   -1.3068 C   0  0  0  0  0  0  0  0  0  0  0  0
    2.5700   -1.8683   -0.7286 C   0  0  0  0  0  0  0  0  0  0  0  0
    3.6782   -1.8926   -1.7915 C   0  0  0  0  0  0  0  0  0  0  0  0
    3.7984   -0.5324   -2.4885 C   0  0  0  0  0  0  0  0  0  0  0  0
    3.4174    0.6059   -1.5463 C   0  0  0  0  0  0  0  0  0  0  0  0
   -0.5954   -0.5594    1.9261 H   0  0  0  0  0  0  0  0  0  0  0  0
   -2.3921    1.1555   -0.8274 H   0  0  0  0  0  0  0  0  0  0  0  0
   -1.0274    2.2674   -1.1645 H   0  0  0  0  0  0  0  0  0  0  0  0
    0.0977    0.7519   -2.5436 H   0  0  0  0  0  0  0  0  0  0  0  0
   -1.6156    0.3046   -2.8467 H   0  0  0  0  0  0  0  0  0  0  0  0
    0.8859   -2.5629   -2.4353 H   0  0  0  0  0  0  0  0  0  0  0  0
    1.3362   -0.8404   -2.6280 H   0  0  0  0  0  0  0  0  0  0  0  0
    1.2829   -1.1574    0.1969 H   0  0  0  0  0  0  0  0  0  0  0  0
    1.9030   -2.7275   -0.3791 H   0  0  0  0  0  0  0  0  0  0  0  0
   -1.2577   -1.8233   -2.0857 H   0  0  0  0  0  0  0  0  0  0  0  0
   -0.6775   -1.1839   -0.5135 H   0  0  0  0  0  0  0  0  0  0  0  0
    3.1658    0.0044   -0.6355 H   0  0  0  0  0  0  0  0  0  0  0  0
    3.8880   -1.5527   -0.1485 H   0  0  0  0  0  0  0  0  0  0  0  0
    4.3895   -0.3733   -2.5069 H   0  0  0  0  0  0  0  0  0  0  0  0
    4.4393   -2.1331   -2.3321 H   0  0  0  0  0  0  0  0  0  0  0  0
    2.7990   -0.5045   -4.1188 H   0  0  0  0  0  0  0  0  0  0  0  0
    2.8003   -2.2746   -3.9774 H   0  0  0  0  0  0  0  0  0  0  0  0
    0.6632   -2.1231   -3.3052 H   0  0  0  0  0  0  0  0  0  0  0  0
    0.7379   -0.3437   -3.1157 H   0  0  0  0  0  0  0  0  0  0  0  0
    0.8459   -0.5376   -0.8257 H   0  0  0  0  0  0  0  0  0  0  0  0
    0.4807   -2.2772   -1.0416 H   0  0  0  0  0  0  0  0  0  0  0  0
    2.8377   -1.1239    0.0532 H   0  0  0  0  0  0  0  0  0  0  0  0
    2.4970   -2.8626   -0.2353 H   0  0  0  0  0  0  0  0  0  0  0  0
    4.6503   -2.1365   -1.3120 H   0  0  0  0  0  0  0  0  0  0  0  0
    3.4483   -2.6740   -2.5490 H   0  0  0  0  0  0  0  0  0  0  0  0
    4.8442   -0.3780   -2.8331 H   0  0  0  0  0  0  0  0  0  0  0  0
    3.1278   -0.5050   -3.3750 H   0  0  0  0  0  0  0  0  0  0  0  0
    2.3647    0.4924   -1.2100 H   0  0  0  0  0  0  0  0  0  0  0  0
    3.5178    1.5764   -2.0763 H   0  0  0  0  0  0  0  0  0  0  0  0
    4.0869    0.6139   -0.6601 H   0  0  0  0  0  0  0  0  0  0  0  0
  1  2  1  0
  1  3  2  0
  1  4  1  0
  4  5  1  0
  6  7  1  0
  5  8  1  0
  6  8  1  0
  7  9  1  0
  9 10  1  0
 10 11  1  0
 11 12  1  0
 12 13  1  0
 13 14  1  0
 14 15  1  0
 15 16  1  0
 16 17  1  0
  2 18  1  0
  4 19  1  0
  4 20  1  0
  5 21  1  0
  5 22  1  0
  6 23  1  0
  6 24  1  0
  7 25  1  0
  7 26  1  0
  8 27  1  0
  8 28  1  0
  9 29  1  0
  9 30  1  0
 10 31  1  0
 10 32  1  0
 11 33  1  0
 11 34  1  0
 12 35  1  0
 12 36  1  0
 13 37  1  0
 13 38  1  0
 14 39  1  0
 14 40  1  0
 15 41  1  0
 15 42  1  0
 16 43  1  0
 16 44  1  0
 17 45  1  0
 17 46  1  0
 17 47  1  0
M  END
