7W06_ITN_A_301
     RDKit          3D

  9  8  0  0  0  0  0  0  0  0999 V2000
  -19.3564   19.3883   29.0546 C   0  0  0  0  0  0  0  0  0  0  0  0
  -20.2480   18.2969   29.4349 C   0  0  0  0  0  0  0  0  0  0  0  0
  -20.4480   17.2096   28.4753 C   0  0  0  0  0  0  0  0  0  0  0  0
  -20.3741   15.8333   29.0369 C   0  0  0  0  0  0  0  0  0  0  0  0
  -20.3166   14.7153   28.2210 O   0  0  0  0  0  0  0  0  0  0  0  0
  -20.3611   15.6334   30.2755 O   0  0  0  0  0  0  0  0  0  0  0  0
  -20.6831   17.2975   27.1886 C   0  0  0  0  0  0  0  0  0  0  0  0
  -18.6545   19.4894   28.0308 O   0  0  0  0  0  0  0  0  0  0  0  0
  -19.2714   20.4742   29.9568 O   0  0  0  0  0  0  0  0  0  0  0  0
  2  1  1  1
  2  3  1  0
  3  4  1  0
  4  5  1  0
  4  6  2  0
  3  7  2  0
  1  8  2  0
  1  9  1  0
M  END
$$$$
