1XOQ_ROF_B_501
     RDKit          3D

 26 28  0  0  0  0  0  0  0  0999 V2000
   19.0260   23.5394   75.0285 O   0  0  0  0  0  0  0  0  0  0  0  0
   24.8020   24.9787   78.7515 C   0  0  0  0  0  0  0  0  0  0  0  0
   24.9645   26.2192   77.8402 C   0  0  0  0  0  0  0  0  0  0  0  0
   23.6614   25.6884   78.3280 C   0  0  1  0  0  0  0  0  0  0  0  0
   18.0676   24.0807   75.6022 C   0  0  0  0  0  0  0  0  0  0  0  0
   18.3345   24.9768   76.7508 C   0  0  0  0  0  0  0  0  0  0  0  0
   17.3254   25.6324   77.4646 C   0  0  0  0  0  0  0  0  0  0  0  0
   17.6527   26.4649   78.5421 C   0  0  0  0  0  0  0  0  0  0  0  0
   18.9907   26.6555   78.9327 C   0  0  0  0  0  0  0  0  0  0  0  0
   19.3839   27.4623   79.9807 O   0  0  0  0  0  0  0  0  0  0  0  0
   18.4805   28.2770   80.7114 C   0  0  2  0  0  0  0  0  0  0  0  0
   17.6336   27.4622   81.3299 F   0  0  0  0  0  0  0  0  0  0  0  0
   17.8561   29.1113   79.8659 F   0  0  0  0  0  0  0  0  0  0  0  0
   19.9983   25.9919   78.2381 C   0  0  0  0  0  0  0  0  0  0  0  0
   21.3103   26.1846   78.6253 O   0  0  0  0  0  0  0  0  0  0  0  0
   22.2620   25.4758   77.8306 C   0  0  0  0  0  0  0  0  0  0  0  0
   19.6637   25.1633   77.1494 C   0  0  0  0  0  0  0  0  0  0  0  0
   16.8322   23.8519   75.1667 N   0  0  0  0  0  0  0  0  0  0  0  0
   16.5671   22.9659   74.0990 C   0  0  0  0  0  0  0  0  0  0  0  0
   15.4274   23.1393   73.2946 C   0  0  0  0  0  0  0  0  0  0  0  0
   14.3690   24.4836   73.5690 Cl  0  0  0  0  0  0  0  0  0  0  0  0
   15.1891   22.2287   72.2669 C   0  0  0  0  0  0  0  0  0  0  0  0
   16.0196   21.1964   72.0376 N   0  0  0  0  0  0  0  0  0  0  0  0
   17.1189   20.9980   72.7830 C   0  0  0  0  0  0  0  0  0  0  0  0
   17.4111   21.8699   73.8430 C   0  0  0  0  0  0  0  0  0  0  0  0
   18.8070   21.5658   74.8309 Cl  0  0  0  0  0  0  0  0  0  0  0  0
  2  3  1  0
  2  4  1  0
  3  4  1  0
  1  5  2  0
  5  6  1  0
  6  7  2  0
  7  8  1  0
  8  9  2  0
  9 10  1  0
 10 11  1  0
 11 12  1  6
 11 13  1  0
  9 14  1  0
 14 15  1  0
  4 16  1  6
 15 16  1  0
  6 17  1  0
 14 17  2  0
  5 18  1  0
 18 19  1  0
 19 20  2  0
 20 21  1  0
 20 22  1  0
 22 23  2  0
 23 24  1  0
 19 25  1  0
 24 25  2  0
 25 26  1  0
M  END
