7VQ9_ISY_B_301
     RDKit          3D

 14 13  0  0  0  0  0  0  0  0999 V2000
   26.7310    2.5679   -1.3234 P   0  0  2  0  0  0  0  0  0  0  0  0
   25.3387    1.6375   -0.9744 O   0  0  0  0  0  0  0  0  0  0  0  0
   24.7319    1.0957   -2.4411 P   0  0  2  0  0  0  0  0  0  0  0  0
   26.2936    3.9079   -2.2223 O   0  0  0  0  0  0  0  0  0  0  0  0
   27.6451    1.6980   -2.1842 O   0  0  0  0  0  0  0  0  0  0  0  0
   27.5278    3.0208    0.1104 O   0  0  0  0  0  0  0  0  0  0  0  0
   25.5406   -0.1234   -2.8606 O   0  0  0  0  0  0  0  0  0  0  0  0
   24.8892    2.3195   -3.6120 O   0  0  0  0  0  0  0  0  0  0  0  0
   22.7159    0.5460   -2.3324 S   0  0  0  0  0  0  0  0  0  0  0  0
   22.3978   -0.6256   -0.9854 C   0  0  0  0  0  0  0  0  0  0  0  0
   20.9388   -0.5726   -0.6527 C   0  0  0  0  0  0  0  0  0  0  0  0
   20.5271   -1.5030    0.4023 C   0  0  0  0  0  0  0  0  0  0  0  0
   20.8364   -2.9486    0.2625 C   0  0  0  0  0  0  0  0  0  0  0  0
   19.8850   -1.0823    1.4885 C   0  0  0  0  0  0  0  0  0  0  0  0
  1  2  1  0
  2  3  1  0
  1  4  1  6
  1  5  2  0
  1  6  1  0
  3  7  2  0
  3  8  1  6
  3  9  1  0
  9 10  1  0
 10 11  1  0
 11 12  1  0
 12 13  1  0
 12 14  2  0
M  END
$$$$
