7OP9_06K_I_301
     RDKit          3D

 13 14  0  0  0  0  0  0  0  0999 V2000
  -85.4151  -27.3611  -33.1214 C   0  0  0  0  0  0  0  0  0  0  0  0
  -85.1600  -27.1208  -35.3954 C   0  0  0  0  0  0  0  0  0  0  0  0
  -84.0598  -27.9300  -35.3351 C   0  0  0  0  0  0  0  0  0  0  0  0
  -83.6799  -28.4413  -34.0756 C   0  0  0  0  0  0  0  0  0  0  0  0
  -84.3352  -27.3138  -37.3863 C   0  0  0  0  0  0  0  0  0  0  0  0
  -84.3767  -28.1451  -33.0129 N   0  0  0  0  0  0  0  0  0  0  0  0
  -85.8330  -26.8468  -34.2567 N   0  0  0  0  0  0  0  0  0  0  0  0
  -83.5590  -28.0332  -36.5965 N   0  0  0  0  0  4  0  0  0  0  0  0
  -85.3135  -26.7555  -36.6889 N   0  0  0  0  0  0  0  0  0  0  0  0
  -86.2708  -26.9981  -31.6384 Cl  0  0  0  0  0  0  0  0  0  0  0  0
  -82.2988  -29.5075  -33.9077 Cl  0  0  0  0  0  0  0  0  0  0  0  0
  -84.1989  -27.2023  -38.4032 H   0  0  0  0  0  0  0  0  0  0  0  0
  -82.7657  -28.5483  -36.8693 H   0  0  0  0  0  0  0  0  0  0  0  0
  2  3  4  0
  3  4  4  0
  1  6  4  0
  4  6  4  0
  1  7  4  0
  2  7  4  0
  3  8  4  0
  5  8  4  0
  2  9  4  0
  5  9  4  0
  1 10  1  0
  4 11  1  0
  5 12  1  0
  8 13  1  0
M  CHG  1   8   1
M  END
