8EYE_X4I_A_1106
     RDKit          3D

 33 35  0  0  0  0  0  0  0  0999 V2000
   16.0924  -19.7772    3.5185 C   0  0  0  0  0  0  0  0  0  0  0  0
   18.4981  -21.3155    0.2464 N   0  0  0  0  0  0  0  0  0  0  0  0
   18.0613  -20.2771   -0.5871 C   0  0  0  0  0  0  0  0  0  0  0  0
   17.4261  -16.9970   -0.7605 C   0  0  0  0  0  0  0  0  0  0  0  0
   15.6393  -15.5596   -1.4467 C   0  0  0  0  0  0  0  0  0  0  0  0
   15.7427  -16.1114   -2.7068 C   0  0  0  0  0  0  0  0  0  0  0  0
   15.5666  -17.7631    7.1692 C   0  0  0  0  0  0  0  0  0  0  0  0
   15.8915  -18.3972    5.9871 C   0  0  0  0  0  0  0  0  0  0  0  0
   16.1992  -19.7507    5.9781 C   0  0  0  0  0  0  0  0  0  0  0  0
   16.5379  -20.3763    4.6959 C   0  0  0  0  0  0  0  0  0  0  0  0
   17.2809  -21.5353    4.6061 C   0  0  0  0  0  0  0  0  0  0  0  0
   17.5703  -22.0812    3.3550 C   0  0  0  0  0  0  0  0  0  0  0  0
   17.1351  -21.4972    2.1833 C   0  0  0  0  0  0  0  0  0  0  0  0
   16.3961  -20.3447    2.2774 C   0  0  0  0  0  0  0  0  0  0  0  0
   17.4911  -22.1667    0.9082 C   0  0  2  0  0  0  0  0  0  0  0  0
   19.0722  -19.4369   -1.2801 C   0  0  0  0  0  0  0  0  0  0  0  0
   17.5478  -17.5697   -2.0309 C   0  0  0  0  0  0  0  0  0  0  0  0
   16.5027  -16.0237   -0.4756 C   0  0  0  0  0  0  0  0  0  0  0  0
   16.6767  -17.0930   -2.9866 C   0  0  0  0  0  0  0  0  0  0  0  0
   18.1090  -23.4934    1.1122 C   0  0  0  0  0  0  0  0  0  0  0  0
   16.1861  -20.4852    7.1469 C   0  0  0  0  0  0  0  0  0  0  0  0
   15.8577  -19.8297    8.3198 C   0  0  0  0  0  0  0  0  0  0  0  0
   15.5469  -18.4837    8.3600 C   0  0  0  0  0  0  0  0  0  0  0  0
   15.2597  -16.4317    7.2033 F   0  0  0  0  0  0  0  0  0  0  0  0
   16.4094  -15.4935    0.7502 F   0  0  0  0  0  0  0  0  0  0  0  0
   14.8985  -15.6557   -3.6516 F   0  0  0  0  0  0  0  0  0  0  0  0
   15.8348  -20.5276    9.4980 F   0  0  0  0  0  0  0  0  0  0  0  0
   15.2241  -17.8391    9.5132 F   0  0  0  0  0  0  0  0  0  0  0  0
   18.5117  -18.5788   -2.2859 N   0  0  0  0  0  0  0  0  0  0  0  0
   17.3690  -24.7014    1.0130 N   0  0  0  0  0  0  0  0  0  0  0  0
   16.8169  -20.1043   -0.7097 O   0  0  0  0  0  0  0  0  0  0  0  0
   18.0855  -25.8597    1.1351 O   0  0  0  0  0  0  0  0  0  0  0  0
   19.3478  -23.5773    1.3857 O   0  0  0  0  0  0  0  0  0  0  0  0
  2  3  1  0
  5  6  1  0
  7  8  2  0
  8  9  1  0
  1 10  2  0
  9 10  1  0
 10 11  1  0
 11 12  2  0
 12 13  1  0
 13 14  2  0
  1 14  1  0
 15  2  1  1
 13 15  1  0
  3 16  1  0
  4 17  2  0
  4 18  1  0
  5 18  2  0
 17 19  1  0
  6 19  2  0
 15 20  1  0
  9 21  2  0
 21 22  1  0
  7 23  1  0
 22 23  2  0
  7 24  1  0
 18 25  1  0
  6 26  1  0
 22 27  1  0
 23 28  1  0
 16 29  1  0
 17 29  1  0
 20 30  1  0
  3 31  2  0
 30 32  1  0
 20 33  2  0
M  END
$$$$
