
     RDKit          3D

 29 34  0  0  0  0  0  0  0  0999 V2000
   49.8876   31.1997   16.8136 C   0  0  0  0  0  0  0  0  0  0  0  0
   49.3021   32.2152   17.5665 C   0  0  0  0  0  0  0  0  0  0  0  0
   48.4590   33.1557   16.9636 C   0  0  0  0  0  0  0  0  0  0  0  0
   48.2052   33.0694   15.5810 C   0  0  0  0  0  0  0  0  0  0  0  0
   47.4296   33.8285   14.6638 C   0  0  0  0  0  0  0  0  0  0  0  0
   47.5643   33.2532   13.4209 C   0  0  0  0  0  0  0  0  0  0  0  0
   48.3932   32.1696   13.5424 N   0  0  0  0  0  0  0  0  0  0  0  0
   48.8023   32.0380   14.8519 C   0  0  0  0  0  0  0  0  0  0  0  0
   49.6489   31.0909   15.4402 C   0  0  0  0  0  0  0  0  0  0  0  0
   46.9648   33.7238   12.1364 C   0  0  1  0  0  0  0  0  0  0  0  0
   45.9171   34.7186   12.4401 N   0  0  0  0  0  0  0  0  0  0  0  0
   45.0541   35.0414   11.3949 C   0  0  0  0  0  0  0  0  0  0  0  0
   44.9727   34.3898   10.3541 O   0  0  0  0  0  0  0  0  0  0  0  0
   44.2979   36.3546   11.5549 C   0  0  0  0  0  0  0  0  0  0  0  0
   43.9056   36.6075   12.9297 N   0  0  0  0  0  0  0  0  0  0  0  0
   44.8874   36.5350   13.9105 C   0  0  0  0  0  0  0  0  0  0  0  0
   44.8098   37.1631   14.9666 O   0  0  0  0  0  0  0  0  0  0  0  0
   46.1332   35.6889   13.5524 C   0  0  1  0  0  0  0  0  0  0  0  0
   46.5695   35.0167   14.8857 C   0  0  0  0  0  0  0  0  0  0  0  0
   42.7831   37.5005   13.1444 C   0  0  0  0  0  0  0  0  0  0  0  0
   48.0296   34.2728   11.1793 C   0  0  0  0  0  0  0  0  0  0  0  0
   48.7513   33.3745   10.3523 C   0  0  0  0  0  0  0  0  0  0  0  0
   49.7258   33.8275    9.4562 C   0  0  0  0  0  0  0  0  0  0  0  0
   49.9646   35.1815    9.4017 C   0  0  0  0  0  0  0  0  0  0  0  0
   50.8692   35.7988    8.5963 O   0  0  0  0  0  0  0  0  0  0  0  0
   50.6716   37.1772    8.9736 C   0  0  0  0  0  0  0  0  0  0  0  0
   49.6579   37.3559    9.9845 O   0  0  0  0  0  0  0  0  0  0  0  0
   49.2747   36.0676   10.1923 C   0  0  0  0  0  0  0  0  0  0  0  0
   48.3082   35.6506   11.0843 C   0  0  0  0  0  0  0  0  0  0  0  0
  1  2  4  0
  2  3  4  0
  3  4  4  0
  4  5  4  0
  5  6  4  0
  6  7  4  0
  4  8  4  0
  7  8  4  0
  1  9  4  0
  8  9  4  0
  6 10  1  0
 10 11  1  0
 11 12  1  0
 12 13  2  0
 12 14  1  0
 14 15  1  0
 15 16  1  0
 16 17  2  0
 11 18  1  0
 16 18  1  0
  5 19  1  0
 18 19  1  1
 15 20  1  0
 10 21  1  6
 21 22  4  0
 22 23  4  0
 23 24  4  0
 24 25  1  0
 25 26  1  0
 26 27  1  0
 24 28  4  0
 27 28  1  0
 21 29  4  0
 28 29  4  0
M  END
