@<TRIPOS>MOLECULE
1JD0_AZM_B_2401
 19 19 0 0 0
SMALL
GASTEIGER

@<TRIPOS>ATOM
      1 C           1.6955    1.0888   -0.5563 C.ar    1  UNL1        0.2556
      2 C          -0.2205    0.3804    0.7004 C.ar    1  UNL1        0.1893
      3 C          -2.4438   -0.8554    0.5283 C.2     1  UNL1        0.2156
      4 C          -3.6988   -1.2804    1.2195 C.3     1  UNL1        0.0125
      5 N           3.6619   -0.0013   -2.3050 N.3     1  UNL1       -0.2015
      6 N           0.6971    1.0349    1.4465 N.ar    1  UNL1       -0.1239
      7 N           1.7620    1.4269    0.7491 N.ar    1  UNL1       -0.1190
      8 N          -1.4474   -0.1184    1.2548 N.am    1  UNL1       -0.2635
      9 O           4.0068    2.3028   -1.0683 O.2     1  UNL1       -0.1512
     10 O           2.3522    2.2279   -2.8704 O.2     1  UNL1       -0.1512
     11 O          -2.2629   -1.1820   -0.6750 O.2     1  UNL1       -0.2757
     12 S           2.9478    1.4616   -1.7235 S.O2    1  UNL1        0.0815
     13 S           0.2728    0.2641   -0.9121 S.2     1  UNL1       -0.0105
     14 H          -4.1332   -0.4204    1.7708 H       1  UNL1        0.0323
     15 H          -3.4678   -2.0953    1.9365 H       1  UNL1        0.0323
     16 H          -4.4459   -1.6458    0.4831 H       1  UNL1        0.0323
     17 H           3.9929   -0.5330   -1.4689 H       1  UNL1        0.1443
     18 H           2.8959   -0.5653   -2.7368 H       1  UNL1        0.1443
     19 H          -1.6247    0.0718    2.2670 H       1  UNL1        0.1568
@<TRIPOS>BOND
     1     3     4    1
     2     2     6   ar
     3     1     7   ar
     4     6     7   ar
     5     2     8    1
     6     3     8   am
     7     3    11    2
     8     1    12    1
     9     5    12    1
    10     9    12    2
    11    10    12    2
    12     1    13   ar
    13     2    13   ar
    14     4    14    1
    15     4    15    1
    16     4    16    1
    17     5    17    1
    18     5    18    1
    19     8    19    1
