7QGP_DJ8_A_401
     RDKit          3D

 35 39  0  0  0  0  0  0  0  0999 V2000
  -20.3589  -10.8438   -1.9916 N   0  0  0  0  0  0  0  0  0  0  0  0
  -24.1204  -10.1058   -2.2503 C   0  0  0  0  0  0  0  0  0  0  0  0
  -21.7161  -10.6951   -1.7458 C   0  0  0  0  0  0  0  0  0  0  0  0
  -19.2303  -18.1052    1.7750 N   0  0  0  0  0  0  0  0  0  0  0  0
  -19.6188  -11.7234   -1.1419 C   0  0  0  0  0  0  0  0  0  0  0  0
  -20.0330  -13.5921   -2.5419 O   0  0  0  0  0  0  0  0  0  0  0  0
  -24.7193  -10.0417   -4.6863 C   0  0  0  0  0  0  0  0  0  0  0  0
  -26.3539   -9.3772   -3.1349 C   0  0  0  0  0  0  0  0  0  0  0  0
  -25.0488   -9.8260   -3.3451 C   0  0  0  0  0  0  0  0  0  0  0  0
  -16.5956  -15.4993    2.8799 N   0  0  0  0  0  0  0  0  0  0  0  0
  -27.2272   -9.1565   -4.1422 C   0  0  0  0  0  0  0  0  0  0  0  0
  -26.9084   -9.3666   -5.4844 C   0  0  0  0  0  0  0  0  0  0  0  0
  -25.6035   -9.8183   -5.7082 C   0  0  0  0  0  0  0  0  0  0  0  0
  -15.6381  -14.3975    3.1464 N   0  0  0  0  0  0  0  0  0  0  0  0
  -22.1263  -11.1404   -0.5803 O   0  0  0  0  0  0  0  0  0  0  0  0
  -22.7073  -10.1328   -2.5560 N   0  0  0  0  0  0  0  0  0  0  0  0
  -28.0115   -9.0701   -6.8023 Cl  0  0  0  0  0  0  0  0  0  0  0  0
  -23.3595  -10.5112   -5.0887 C   0  0  0  0  0  0  0  0  0  0  0  0
  -19.3878  -13.0485   -1.4118 C   0  0  0  0  0  0  0  0  0  0  0  0
  -18.5416  -13.8447   -0.5790 C   0  0  0  0  0  0  0  0  0  0  0  0
  -21.0104  -14.5951   -2.7748 C   0  0  0  0  0  0  0  0  0  0  0  0
  -20.8220  -15.9632   -2.2867 C   0  0  0  0  0  0  0  0  0  0  0  0
  -20.9709  -16.2444   -0.9134 O   0  0  0  0  0  0  0  0  0  0  0  0
  -20.1563  -17.3350   -0.4767 C   0  0  0  0  0  0  0  0  0  0  0  0
  -20.3899  -17.7689    0.9608 C   0  0  0  0  0  0  0  0  0  0  0  0
  -18.2337  -17.1847    2.2245 C   0  0  0  0  0  0  0  0  0  0  0  0
  -18.2933  -15.9520    1.6192 N   0  0  0  0  0  0  0  0  0  0  0  0
  -17.2808  -15.0489    2.0811 C   0  0  0  0  0  0  0  0  0  0  0  0
  -16.2830  -16.5894    3.6417 C   0  0  0  0  0  0  0  0  0  0  0  0
  -17.3006  -17.5801    3.2049 C   0  0  0  0  0  0  0  0  0  0  0  0
  -17.1417  -13.8056    1.5811 C   0  0  0  0  0  0  0  0  0  0  0  0
  -16.0029  -13.3618    2.3265 C   0  0  0  0  0  0  0  0  0  0  0  0
  -17.9808  -13.1999    0.5384 C   0  0  0  0  0  0  0  0  0  0  0  0
  -18.2596  -11.8654    0.7558 C   0  0  0  0  0  0  0  0  0  0  0  0
  -19.0570  -11.0526   -0.0225 C   0  0  0  0  0  0  0  0  0  0  0  0
  1  3  1  0
  1  5  1  0
  8  9  1  0
  2  9  1  0
  7  9  2  0
  8 11  2  0
 11 12  1  0
 12 13  2  0
  7 13  1  0
 10 14  1  0
  3 15  2  0
  2 16  1  0
  3 16  1  0
 12 17  1  0
  7 18  1  0
  6 19  1  0
  5 19  2  0
 19 20  1  0
  6 21  1  0
 21 22  1  0
 22 23  1  0
 23 24  1  0
 24 25  1  0
  4 25  1  0
  4 26  1  0
 26 27  2  0
 27 28  1  0
 10 28  1  0
 10 29  1  0
 26 30  1  0
 29 30  2  0
 28 31  2  0
 31 32  1  0
 14 32  2  0
 20 33  2  0
 31 33  1  0
 33 34  1  0
  5 35  1  0
 34 35  2  0
M  END
$$$$
