1G9V_RQ3_A_801
     RDKit          3D

 25 26  0  0  0  0  0  0  0  0999 V2000
   17.5400   19.0626   37.1100 C   0  0  0  0  0  0  0  0  0  0  0  0
   18.4862   18.4853   37.7042 O   0  0  0  0  0  0  0  0  0  0  0  0
   16.7415   18.4433   36.3675 O   0  0  0  0  0  0  0  0  0  0  0  0
   17.3893   20.5475   37.2782 C   0  0  2  0  0  0  0  0  0  0  0  0
   17.9836   21.2251   36.0437 C   0  0  0  0  0  0  0  0  0  0  0  0
   18.1562   21.0320   38.5301 C   0  0  0  0  0  0  0  0  0  0  0  0
   15.9744   20.8660   37.3421 O   0  0  0  0  0  0  0  0  0  0  0  0
   15.0445   20.5119   38.4492 C   0  0  0  0  0  0  0  0  0  0  0  0
   13.7522   21.0294   38.4111 C   0  0  0  0  0  0  0  0  0  0  0  0
   12.8466   20.7172   39.4033 C   0  0  0  0  0  0  0  0  0  0  0  0
   13.2073   19.8885   40.4449 C   0  0  0  0  0  0  0  0  0  0  0  0
   15.4180   19.6726   39.5036 C   0  0  0  0  0  0  0  0  0  0  0  0
   14.4881   19.3631   40.5054 C   0  0  0  0  0  0  0  0  0  0  0  0
   12.2429   19.5663   41.4516 C   0  0  0  0  0  0  0  0  0  0  0  0
   11.2062   18.5176   41.0050 C   0  0  0  0  0  0  0  0  0  0  0  0
   11.3555   17.9118   39.9447 O   0  0  0  0  0  0  0  0  0  0  0  0
   10.0452   18.5240   41.6475 N   0  0  0  0  0  0  0  0  0  0  0  0
    8.8219   18.8641   41.1060 C   0  0  0  0  0  0  0  0  0  0  0  0
    8.7277   19.8715   40.1318 C   0  0  0  0  0  0  0  0  0  0  0  0
    7.4843   20.3496   39.7518 C   0  0  0  0  0  0  0  0  0  0  0  0
    6.3393   19.8277   40.3393 C   0  0  0  0  0  0  0  0  0  0  0  0
    7.6686   18.3506   41.6783 C   0  0  0  0  0  0  0  0  0  0  0  0
    6.4400   18.8247   41.3022 C   0  0  0  0  0  0  0  0  0  0  0  0
    7.3768   21.4177   38.7093 C   0  0  0  0  0  0  0  0  0  0  0  0
    5.2071   18.2498   41.9308 C   0  0  0  0  0  0  0  0  0  0  0  0
  1  2  1  0
  1  3  2  0
  1  4  1  0
  4  5  1  6
  4  6  1  0
  4  7  1  0
  7  8  1  0
  8  9  2  0
  9 10  1  0
 10 11  2  0
  8 12  1  0
 11 13  1  0
 12 13  2  0
 11 14  1  0
 14 15  1  0
 15 16  2  0
 15 17  1  0
 17 18  1  0
 18 19  2  0
 19 20  1  0
 20 21  2  0
 18 22  1  0
 21 23  1  0
 22 23  2  0
 20 24  1  0
 23 25  1  0
M  END
