7P1F_KFN_B_501
     RDKit          3D

 31 31  0  0  0  0  0  0  0  0999 V2000
   -2.6312  -28.6553   23.2786 C   0  0  0  0  0  0  0  0  0  0  0  0
   -0.4665  -27.5013   23.4465 C   0  0  0  0  0  0  0  0  0  0  0  0
    0.5162  -26.4383   23.0158 C   0  0  1  0  0  0  0  0  0  0  0  0
   -0.2066  -25.2187   22.4002 C   0  0  2  0  0  0  0  0  0  0  0  0
   -1.2041  -25.7137   21.3263 C   0  0  2  0  0  0  0  0  0  0  0  0
   -2.0214  -24.5987   20.6129 C   0  0  1  0  0  0  0  0  0  0  0  0
   -2.2108  -23.2665   21.3903 C   0  0  1  0  0  0  0  0  0  0  0  0
   -3.5968  -23.1326   22.0404 C   0  0  2  0  0  0  0  0  0  0  0  0
    0.7201  -24.3051   21.8675 O   0  0  0  0  0  0  0  0  0  0  0  0
   -3.8643  -28.7405   22.6398 O   0  0  0  0  0  0  0  0  0  0  0  0
   -2.3447  -29.4763   24.1920 O   0  0  0  0  0  0  0  0  0  0  0  0
    1.3239  -26.0458   24.0968 O   0  0  0  0  0  0  0  0  0  0  0  0
   -2.0851  -26.6837   21.8976 O   0  0  0  0  0  0  0  0  0  0  0  0
   -1.6801  -27.6044   22.8765 C   0  0  0  0  0  0  0  0  0  0  0  0
   -1.4497  -24.3143   19.3606 O   0  0  0  0  0  0  0  0  0  0  0  0
   -1.2143  -23.0978   22.3665 O   0  0  0  0  0  0  0  0  0  0  0  0
   -3.4839  -22.5546   23.3132 O   0  0  0  0  0  0  0  0  0  0  0  0
   -0.1485  -28.2175   24.1950 H   0  0  0  0  0  0  0  0  0  0  0  0
    1.1756  -26.8938   22.2453 H   0  0  0  0  0  0  0  0  0  0  0  0
   -0.7674  -24.7153   23.2146 H   0  0  0  0  0  0  0  0  0  0  0  0
   -0.6171  -26.2408   20.5405 H   0  0  0  0  0  0  0  0  0  0  0  0
   -3.0455  -25.0095   20.4432 H   0  0  0  0  0  0  0  0  0  0  0  0
   -2.1299  -22.4407   20.6431 H   0  0  0  0  0  0  0  0  0  0  0  0
   -4.0967  -24.1241   22.1182 H   0  0  0  0  0  0  0  0  0  0  0  0
   -4.2374  -22.4723   21.4177 H   0  0  0  0  0  0  0  0  0  0  0  0
    0.3952  -24.0358   20.9686 H   0  0  0  0  0  0  0  0  0  0  0  0
   -4.4228  -27.9115   22.4748 H   0  0  0  0  0  0  0  0  0  0  0  0
    0.8397  -25.3319   24.5897 H   0  0  0  0  0  0  0  0  0  0  0  0
   -1.2854  -25.1834   18.9089 H   0  0  0  0  0  0  0  0  0  0  0  0
   -0.4615  -23.6977   22.1236 H   0  0  0  0  0  0  0  0  0  0  0  0
   -4.1800  -22.9763   23.8818 H   0  0  0  0  0  0  0  0  0  0  0  0
  2  3  1  0
  3  4  1  0
  4  5  1  0
  5  6  1  0
  6  7  1  0
  7  8  1  0
  4  9  1  0
  1 10  1  0
  1 11  2  0
  3 12  1  0
  5 13  1  0
  1 14  1  0
  2 14  2  0
 13 14  1  0
  6 15  1  0
  7 16  1  0
  8 17  1  0
  2 18  1  0
  3 19  1  6
  4 20  1  1
  5 21  1  6
  6 22  1  6
  7 23  1  6
  8 24  1  1
  8 25  1  0
  9 26  1  0
 10 27  1  0
 12 28  1  0
 15 29  1  0
 16 30  1  0
 17 31  1  0
M  END
