7L00_XCJ_A_402
     RDKit          3D

 27 30  0  0  0  0  0  0  0  0999 V2000
  -19.5389    1.2299    2.4378 C   0  0  0  0  0  0  0  0  0  0  0  0
  -21.9108    2.5805    1.5785 C   0  0  0  0  0  0  0  0  0  0  0  0
  -22.9405    1.8112    1.0440 C   0  0  0  0  0  0  0  0  0  0  0  0
  -23.6290    2.2963   -0.0804 C   0  0  0  0  0  0  0  0  0  0  0  0
  -23.3458    3.5086   -0.7015 C   0  0  0  0  0  0  0  0  0  0  0  0
  -22.3209    4.2452   -0.1472 C   0  0  0  0  0  0  0  0  0  0  0  0
  -21.6604    3.7742    0.9359 C   0  0  0  0  0  0  0  0  0  0  0  0
  -24.9882    3.1024   -2.1839 C   0  0  0  0  0  0  0  0  0  0  0  0
  -26.4155    1.8132   -3.7343 C   0  0  0  0  0  0  0  0  0  0  0  0
  -27.2553    1.7767   -4.9603 C   0  0  0  0  0  0  0  0  0  0  0  0
  -28.0011    0.4859   -5.0682 C   0  0  0  0  0  0  0  0  0  0  0  0
  -27.5920   -0.5301   -5.8896 C   0  0  0  0  0  0  0  0  0  0  0  0
  -29.7496   -0.7672   -4.4154 C   0  0  0  0  0  0  0  0  0  0  0  0
  -31.7401   -0.6693   -2.9123 C   0  0  0  0  0  0  0  0  0  0  0  0
  -32.7675   -1.5487   -2.5938 C   0  0  0  0  0  0  0  0  0  0  0  0
  -32.5917   -2.7210   -3.2989 C   0  0  0  0  0  0  0  0  0  0  0  0
  -31.4387   -2.5270   -4.0462 C   0  0  0  0  0  0  0  0  0  0  0  0
  -24.1295    3.7364   -1.7323 N   0  0  0  0  0  0  0  0  0  0  0  0
  -25.9969    3.0789   -3.2677 N   0  0  0  0  0  0  0  0  0  0  0  0
  -30.9739   -1.3120   -3.7884 N   0  0  0  0  0  0  0  0  0  0  0  0
  -29.1017    0.1887   -4.4061 N   0  0  0  0  0  0  0  0  0  0  0  0
  -26.0740    0.7700   -3.1130 O   0  0  0  0  0  0  0  0  0  0  0  0
  -20.7009    3.0888    3.9265 O   0  0  0  0  0  0  0  0  0  0  0  0
  -21.8691    0.9740    3.6889 O   0  0  0  0  0  0  0  0  0  0  0  0
  -21.0520    2.0032    2.9595 S   0  0  2  0  0  6  0  0  0  0  0  0
  -24.9990    1.5844   -1.0305 S   0  0  0  0  0  0  0  0  0  0  0  0
  -28.8549   -1.8692   -5.6398 S   0  0  0  0  0  0  0  0  0  0  0  0
  2  3  2  0
  3  4  1  0
  4  5  2  0
  5  6  1  0
  2  7  1  0
  6  7  2  0
 10  9  1  6
 10 11  1  0
 11 12  2  0
 14 15  2  0
 15 16  1  0
 16 17  2  0
  8 18  2  0
  5 18  1  0
  9 19  1  0
  8 19  1  0
 14 20  1  0
 17 20  1  0
 13 20  1  0
 13 21  2  0
 11 21  1  0
  9 22  2  0
  1 25  1  1
 25  2  1  6
 23 25  2  0
 24 25  2  0
  8 26  1  0
  4 26  1  0
 13 27  1  0
 12 27  1  0
M  END
$$$$
