8D19_GSH_A_501
     RDKit          3D

 37 36  0  0  0  0  0  0  0  0999 V2000
   21.4156   34.5250   30.1998 N   0  0  0  0  0  0  0  0  0  0  0  0
   22.4150   34.1260   31.2298 C   0  0  1  0  0  0  0  0  0  0  0  0
   22.0821   34.8229   32.5527 C   0  0  0  0  0  0  0  0  0  0  0  0
   22.9116   35.6228   33.0023 O   0  0  0  0  0  0  0  0  0  0  0  0
   21.0138   34.5120   33.1006 O   0  0  0  0  0  0  0  0  0  0  0  0
   22.3947   32.6096   31.4420 C   0  0  0  0  0  0  0  0  0  0  0  0
   22.4366   31.8144   30.1443 C   0  0  0  0  0  0  0  0  0  0  0  0
   23.2661   30.5492   30.2405 C   0  0  0  0  0  0  0  0  0  0  0  0
   24.4052   30.4801   29.7889 O   0  0  0  0  0  0  0  0  0  0  0  0
   22.6935   29.5282   30.8774 N   0  0  0  0  0  0  0  0  0  0  0  0
   21.4448   29.6386   31.6139 C   0  0  1  0  0  0  0  0  0  0  0  0
   20.9463   31.0742   31.7906 C   0  0  0  0  0  0  0  0  0  0  0  0
   20.0380   31.3000   32.5857 O   0  0  0  0  0  0  0  0  0  0  0  0
   20.3530   28.8074   30.9623 C   0  0  0  0  0  0  0  0  0  0  0  0
   20.6443   27.0219   31.0509 S   0  0  0  0  0  0  0  0  0  0  0  0
   21.5335   32.0226   31.0569 N   0  0  0  0  0  0  0  0  0  0  0  0
   22.6442   32.7993   31.5695 C   0  0  0  0  0  0  0  0  0  0  0  0
   22.2243   33.9482   32.4859 C   0  0  0  0  0  0  0  0  0  0  0  0
   22.9350   34.9712   32.5121 O   0  0  0  0  0  0  0  0  0  0  0  0
   21.1937   33.7686   33.1686 O   0  0  0  0  0  0  0  0  0  0  0  0
   21.4439   35.5367   30.0725 H   0  0  0  0  0  0  0  0  0  0  0  0
   21.6356   34.0649   29.3164 H   0  0  0  0  0  0  0  0  0  0  0  0
   23.3891   34.4149   30.8940 H   0  0  0  0  0  0  0  0  0  0  0  0
   20.4393   33.8954   32.6910 H   0  0  0  0  0  0  0  0  0  0  0  0
   23.2448   32.3388   32.0327 H   0  0  0  0  0  0  0  0  0  0  0  0
   21.4712   32.3719   31.9272 H   0  0  0  0  0  0  0  0  0  0  0  0
   21.4356   31.5444   29.8795 H   0  0  0  0  0  0  0  0  0  0  0  0
   22.8959   32.4381   29.4061 H   0  0  0  0  0  0  0  0  0  0  0  0
   23.1403   28.6515   30.8477 H   0  0  0  0  0  0  0  0  0  0  0  0
   21.6661   29.2629   32.5911 H   0  0  0  0  0  0  0  0  0  0  0  0
   19.4266   29.0231   31.4524 H   0  0  0  0  0  0  0  0  0  0  0  0
   20.3377   29.0701   29.9251 H   0  0  0  0  0  0  0  0  0  0  0  0
   20.6734   26.6315   32.3534 H   0  0  0  0  0  0  0  0  0  0  0  0
   21.2039   32.1985   30.1460 H   0  0  0  0  0  0  0  0  0  0  0  0
   23.2866   32.1454   32.1215 H   0  0  0  0  0  0  0  0  0  0  0  0
   23.1332   33.2379   30.7249 H   0  0  0  0  0  0  0  0  0  0  0  0
   20.7136   32.9678   33.0903 H   0  0  0  0  0  0  0  0  0  0  0  0
  2  1  1  0
  2  3  1  0
  3  4  2  0
  3  5  1  0
  2  6  1  0
  6  7  1  0
  7  8  1  0
  8  9  2  0
  8 10  1  0
 10 11  1  0
 11 12  1  0
 12 13  2  0
 11 14  1  0
 14 15  1  0
 12 16  1  0
 16 17  1  0
 17 18  1  0
 18 19  2  0
 18 20  1  0
  1 21  1  0
  1 22  1  0
  2 23  1  1
  5 24  1  0
  6 25  1  0
  6 26  1  0
  7 27  1  0
  7 28  1  0
 10 29  1  0
 11 30  1  6
 14 31  1  0
 14 32  1  0
 15 33  1  0
 16 34  1  0
 17 35  1  0
 17 36  1  0
 20 37  1  0
M  END
