7DKT_GLF_A_1001
     RDKit          3D

 23 23  0  0  0  0  0  0  0  0999 V2000
   58.9713   69.3389   63.2042 C   0  0  1  0  0  0  0  0  0  0  0  0
   59.6019   70.4690   62.3571 C   0  0  1  0  0  0  0  0  0  0  0  0
   59.5985   70.1115   60.8540 C   0  0  2  0  0  0  0  0  0  0  0  0
   59.6186   68.5846   60.6677 C   0  0  1  0  0  0  0  0  0  0  0  0
   58.3819   67.9646   61.3822 C   0  0  1  0  0  0  0  0  0  0  0  0
   58.6322   66.5001   61.7793 C   0  0  2  0  0  0  0  0  0  0  0  0
   58.4794   69.8486   64.3932 F   0  0  0  0  0  0  0  0  0  0  0  0
   58.8973   71.6716   62.5399 O   0  0  0  0  0  0  0  0  0  0  0  0
   60.7174   70.6954   60.2362 O   0  0  0  0  0  0  0  0  0  0  0  0
   59.5802   68.2576   59.3012 O   0  0  0  0  0  0  0  0  0  0  0  0
   57.9140   68.7147   62.5018 O   0  0  0  0  0  0  0  0  0  0  0  0
   58.1421   66.2501   63.0689 O   0  0  0  0  0  0  0  0  0  0  0  0
   59.7527   68.5933   63.4753 H   0  0  0  0  0  0  0  0  0  0  0  0
   60.6591   70.5958   62.6941 H   0  0  0  0  0  0  0  0  0  0  0  0
   58.6599   70.5064   60.3930 H   0  0  0  0  0  0  0  0  0  0  0  0
   60.5544   68.1841   61.1286 H   0  0  0  0  0  0  0  0  0  0  0  0
   57.5480   67.9614   60.6453 H   0  0  0  0  0  0  0  0  0  0  0  0
   59.7207   66.2827   61.7685 H   0  0  0  0  0  0  0  0  0  0  0  0
   58.1466   65.8164   61.0457 H   0  0  0  0  0  0  0  0  0  0  0  0
   58.3690   71.5755   63.3752 H   0  0  0  0  0  0  0  0  0  0  0  0
   60.6952   70.4275   59.2804 H   0  0  0  0  0  0  0  0  0  0  0  0
   60.3352   68.7340   58.8668 H   0  0  0  0  0  0  0  0  0  0  0  0
   58.9125   66.3412   63.6885 H   0  0  0  0  0  0  0  0  0  0  0  0
  1  2  1  0
  2  3  1  0
  3  4  1  0
  4  5  1  0
  5  6  1  0
  1  7  1  0
  2  8  1  0
  3  9  1  0
  4 10  1  0
  1 11  1  0
  5 11  1  0
  6 12  1  0
  1 13  1  1
  2 14  1  1
  3 15  1  6
  4 16  1  1
  5 17  1  6
  6 18  1  1
  6 19  1  0
  8 20  1  0
  9 21  1  0
 10 22  1  0
 12 23  1  0
M  END
