8AIJ_M9I_BBB_203
     RDKit          3D

 19 20  0  0  0  0  0  0  0  0999 V2000
   -0.5875    8.7386    5.2245 C   0  0  1  0  0  0  0  0  0  0  0  0
   -0.3836    9.2935    3.8094 C   0  0  2  0  0  0  0  0  0  0  0  0
   -0.4500    8.1922    2.7728 C   0  0  1  0  0  0  0  0  0  0  0  0
   -1.7329    7.3898    2.9259 C   0  0  1  0  0  0  0  0  0  0  0  0
   -1.8639    6.8645    4.3443 C   0  0  2  0  0  0  0  0  0  0  0  0
   -3.1870    6.1684    4.5743 C   0  0  0  0  0  0  0  0  0  0  0  0
    0.8557    9.9797    3.6971 O   0  0  0  0  0  0  0  0  0  0  0  0
   -0.4027    8.7709    1.4714 O   0  0  0  0  0  0  0  0  0  0  0  0
   -2.8116    8.2694    2.5682 O   0  0  0  0  0  0  0  0  0  0  0  0
   -1.7796    7.9518    5.2901 O   0  0  0  0  0  0  0  0  0  0  0  0
    0.4628    7.2224    7.7596 O   0  0  0  0  0  0  0  0  0  0  0  0
    0.9396    8.0112    6.9414 C   0  0  0  0  0  0  0  0  0  0  0  0
    0.5704    8.0064    5.6728 N   0  0  0  0  0  0  0  0  0  0  0  0
    1.9381    9.0474    7.3568 C   0  0  0  0  0  0  0  0  0  0  0  0
    2.6057    8.8997    8.5557 C   0  0  0  0  0  0  0  0  0  0  0  0
    2.1841   10.1700    6.5610 C   0  0  0  0  0  0  0  0  0  0  0  0
    3.1107   11.1260    6.9612 C   0  0  0  0  0  0  0  0  0  0  0  0
    3.7606   10.9722    8.1621 C   0  0  0  0  0  0  0  0  0  0  0  0
    3.5058    9.8718    8.9580 C   0  0  0  0  0  0  0  0  0  0  0  0
  1  2  1  0
  2  3  1  0
  3  4  1  0
  4  5  1  0
  5  6  1  6
  2  7  1  1
  3  8  1  6
  4  9  1  1
  1 10  1  0
  5 10  1  0
 11 12  2  0
  1 13  1  6
 12 13  1  0
 12 14  1  0
 14 15  2  0
 14 16  1  0
 16 17  2  0
 17 18  1  0
 18 19  2  0
 15 19  1  0
M  END
