7P1F_KFN_B_501
     RDKit          3D

 17 17  0  0  0  0  0  0  0  0999 V2000
   -0.6015  -21.9443   22.1075 C   0  0  0  0  0  0  0  0  0  0  0  0
   -2.1080  -23.8961   21.7552 C   0  0  0  0  0  0  0  0  0  0  0  0
   -2.2494  -25.2994   21.5659 C   0  0  1  0  0  0  0  0  0  0  0  0
   -1.1123  -26.0908   22.2153 C   0  0  2  0  0  0  0  0  0  0  0  0
    0.2361  -25.5181   21.7725 C   0  0  2  0  0  0  0  0  0  0  0  0
    1.4050  -26.1939   22.5181 C   0  0  1  0  0  0  0  0  0  0  0  0
    2.7320  -25.6615   21.9937 C   0  0  1  0  0  0  0  0  0  0  0  0
    3.8664  -25.9637   22.9821 C   0  0  0  0  0  0  0  0  0  0  0  0
   -1.1901  -27.4863   21.8452 O   0  0  0  0  0  0  0  0  0  0  0  0
   -1.5291  -21.0950   22.0610 O   0  0  0  0  0  0  0  0  0  0  0  0
    0.5813  -21.5396   22.2356 O   0  0  0  0  0  0  0  0  0  0  0  0
   -3.5192  -25.7983   22.0256 O   0  0  0  0  0  0  0  0  0  0  0  0
    0.2845  -24.1077   22.0807 O   0  0  0  0  0  0  0  0  0  0  0  0
   -0.8459  -23.3291   21.9809 C   0  0  0  0  0  0  0  0  0  0  0  0
    1.2866  -25.8538   23.9108 O   0  0  0  0  0  0  0  0  0  0  0  0
    3.0673  -26.2280   20.7180 O   0  0  0  0  0  0  0  0  0  0  0  0
    3.9784  -27.3834   23.1416 O   0  0  0  0  0  0  0  0  0  0  0  0
  2  3  1  0
  3  4  1  0
  4  5  1  0
  5  6  1  0
  6  7  1  0
  7  8  1  0
  4  9  1  6
  1 10  1  0
  1 11  2  0
  3 12  1  1
  5 13  1  1
  1 14  1  0
  2 14  2  0
 13 14  1  0
  6 15  1  1
  7 16  1  6
  8 17  1  0
M  END
