1VCJ_IBA_A_1
     RDKit          3D

 25 26  0  0  0  0  0  0  0  0999 V2000
   33.6494   -9.4824   64.6581 C   0  0  0  0  0  0  0  0  0  0  0  0
   32.4125   -9.0866   64.1949 C   0  0  0  0  0  0  0  0  0  0  0  0
   31.2589   -9.8516   64.4131 C   0  0  0  0  0  0  0  0  0  0  0  0
   31.4558  -11.0190   65.1191 C   0  0  0  0  0  0  0  0  0  0  0  0
   32.6984  -11.4191   65.5862 C   0  0  0  0  0  0  0  0  0  0  0  0
   33.8214  -10.6550   65.3632 C   0  0  0  0  0  0  0  0  0  0  0  0
   32.8321  -12.6758   66.3322 C   0  0  0  0  0  0  0  0  0  0  0  0
   33.9705  -12.9621   67.0364 O   0  0  0  0  0  0  0  0  0  0  0  0
   31.8832  -13.5124   66.3282 O   0  0  0  0  0  0  0  0  0  0  0  0
   30.0055   -9.4340   63.9048 N   0  0  0  0  0  0  0  0  0  0  0  0
   28.8313  -10.2649   63.7973 C   0  0  1  0  0  0  0  0  0  0  0  0
   27.6157   -9.3844   63.7227 C   0  0  0  0  0  0  0  0  0  0  0  0
   28.9845  -11.1387   62.5708 C   0  0  0  0  0  0  0  0  0  0  0  0
   27.4245   -8.6426   65.0293 C   0  0  0  0  0  0  0  0  0  0  0  0
   28.5308  -12.5592   62.7887 C   0  0  0  0  0  0  0  0  0  0  0  0
   32.3691   -7.8564   63.4715 N   0  0  0  0  0  0  0  0  0  0  0  0
   32.9757   -7.4796   62.2391 C   0  0  1  0  0  0  0  0  0  0  0  0
   32.8160   -5.9720   62.1865 C   0  0  0  0  0  0  0  0  0  0  0  0
   31.4826   -5.7800   62.8479 C   0  0  0  0  0  0  0  0  0  0  0  0
   31.6005   -6.7405   63.9835 C   0  0  0  0  0  0  0  0  0  0  0  0
   31.1326   -6.6162   65.1492 O   0  0  0  0  0  0  0  0  0  0  0  0
   34.4466   -7.7218   62.1142 C   0  0  0  0  0  0  0  0  0  0  0  0
   34.9496   -7.3811   60.8657 O   0  0  0  0  0  0  0  0  0  0  0  0
   32.3155   -8.1208   61.0339 C   0  0  0  0  0  0  0  0  0  0  0  0
   33.1349   -9.1607   60.4927 N   0  0  0  0  0  0  0  0  0  0  0  0
  1  2  2  0
  2  3  1  0
  3  4  2  0
  4  5  1  0
  1  6  1  0
  5  6  2  0
  5  7  1  0
  7  8  1  0
  7  9  2  0
  3 10  1  0
 11 10  1  6
 11 12  1  0
 11 13  1  0
 12 14  1  6
 13 15  1  1
  2 16  1  0
 17 16  1  1
 17 18  1  0
 18 19  1  6
 16 20  1  0
 19 20  1  1
 20 21  2  0
 17 22  1  0
 22 23  1  6
 17 24  1  0
 24 25  1  6
M  END
$$$$
