7VC5_9SF_A_902
     RDKit          3D

 22 24  0  0  0  0  0  0  0  0999 V2000
   14.0656   -1.4462   11.2403 N   0  0  0  0  0  0  0  0  0  0  0  0
   13.8726   -2.6774   11.5433 C   0  0  0  0  0  0  0  0  0  0  0  0
   11.1981    0.0295   13.0780 C   0  0  0  0  0  0  0  0  0  0  0  0
   11.4008    1.3688   12.7964 C   0  0  0  0  0  0  0  0  0  0  0  0
   12.4597    1.7629   12.0028 C   0  0  0  0  0  0  0  0  0  0  0  0
   13.3336    0.8255   11.4761 C   0  0  0  0  0  0  0  0  0  0  0  0
   12.0770   -0.9224   12.5611 C   0  0  0  0  0  0  0  0  0  0  0  0
   12.7594   -4.6068   12.5651 C   0  0  0  0  0  0  0  0  0  0  0  0
    9.5856   -6.9050   12.2047 C   0  0  2  0  0  0  0  0  0  0  0  0
   11.5031   -5.2161   11.9515 C   0  0  0  0  0  0  0  0  0  0  0  0
   10.6534   -6.0405   12.8867 C   0  0  0  0  0  0  0  0  0  0  0  0
   10.1463   -8.0341   11.3471 C   0  0  2  0  0  0  0  0  0  0  0  0
   11.9004   -2.3403   12.8859 C   0  0  0  0  0  0  0  0  0  0  0  0
    9.0322   -8.9550   10.8821 C   0  0  0  0  0  0  0  0  0  0  0  0
    8.0077   -8.1542   10.0759 C   0  0  0  0  0  0  0  0  0  0  0  0
    7.5538   -6.9249   10.8589 C   0  0  0  0  0  0  0  0  0  0  0  0
   13.1507   -0.5281   11.7549 C   0  0  0  0  0  0  0  0  0  0  0  0
    8.6809   -6.1187   11.3524 N   0  0  0  0  0  0  0  0  0  0  0  0
   12.8597   -3.1725   12.3203 N   0  0  0  0  0  0  0  0  0  0  0  0
   11.0120   -2.7841   13.5915 O   0  0  0  0  0  0  0  0  0  0  0  0
   11.1995   -5.0320   10.7917 O   0  0  0  0  0  0  0  0  0  0  0  0
   11.1336   -8.7590   12.0799 O   0  0  0  0  0  0  0  0  0  0  0  0
  1  2  2  0
  3  4  2  0
  4  5  1  0
  5  6  2  0
  3  7  1  0
  8 10  1  0
  9 11  1  6
 10 11  1  0
  9 12  1  0
  7 13  1  0
 12 14  1  0
 14 15  1  0
 15 16  1  0
  1 17  1  0
  7 17  2  0
  6 17  1  0
 16 18  1  0
  9 18  1  0
  8 19  1  0
  2 19  1  0
 13 19  1  0
 13 20  2  0
 10 21  2  0
 12 22  1  1
M  END
