8HO0_3ZI_A_402
     RDKit          3D

 38 41  0  0  0  0  0  0  0  0999 V2000
    3.5951   28.9309  -11.5065 C   0  0  1  0  0  0  0  0  0  0  0  0
    5.2138   30.4747   -7.8265 C   0  0  0  0  0  0  0  0  0  0  0  0
    4.8485   28.2534   -8.7091 C   0  0  0  0  0  0  0  0  0  0  0  0
    5.0105   29.6283   -8.8867 C   0  0  0  0  0  0  0  0  0  0  0  0
    4.6185   27.2005  -12.8104 O   0  0  0  0  0  0  0  0  0  0  0  0
    5.6345   25.9851  -10.3203 C   0  0  2  0  0  0  0  0  0  0  0  0
    2.9429   28.1324   -9.1732 C   0  0  0  0  0  0  0  0  0  0  0  0
    4.7238   29.9736  -11.4358 C   0  0  1  0  0  0  0  0  0  0  0  0
    4.9879   30.4121  -10.0244 C   0  0  0  0  0  0  0  0  0  0  0  0
    5.2756   30.0018   -6.5157 C   0  0  0  0  0  0  0  0  0  0  0  0
    5.1217   28.6192   -6.3050 C   0  0  0  0  0  0  0  0  0  0  0  0
    4.9077   27.7495   -7.3971 C   0  0  0  0  0  0  0  0  0  0  0  0
    4.1974   27.5629  -11.6789 C   0  0  0  0  0  0  0  0  0  0  0  0
    3.5670   26.7774   -9.3541 C   0  0  2  0  0  0  0  0  0  0  0  0
    4.4896   26.3676   -8.2090 C   0  0  1  0  0  0  0  0  0  0  0  0
    5.5738   25.5167   -8.8692 C   0  0  1  0  0  0  0  0  0  0  0  0
    5.1686   31.7199   -9.5851 C   0  0  0  0  0  0  0  0  0  0  0  0
    5.4727   30.8465   -5.4734 F   0  0  0  0  0  0  0  0  0  0  0  0
    4.4046   26.7255  -10.5378 N   0  0  0  0  0  0  0  0  0  0  0  0
    2.7650   29.0018  -10.2982 N   0  0  0  0  0  0  0  0  0  0  0  0
    5.3131   31.7504   -8.2405 N   0  0  0  0  0  0  0  0  0  0  0  0
    2.4640   28.4587   -8.0539 O   0  0  0  0  0  0  0  0  0  0  0  0
    2.9543   29.1450  -12.3905 H   0  0  0  0  0  0  0  0  0  0  0  0
    4.6780   27.5917   -9.5482 H   0  0  0  0  0  0  0  0  0  0  0  0
    5.6957   25.1228  -11.0185 H   0  0  0  0  0  0  0  0  0  0  0  0
    6.5079   26.6573  -10.4686 H   0  0  0  0  0  0  0  0  0  0  0  0
    5.6540   29.5568  -11.8801 H   0  0  0  0  0  0  0  0  0  0  0  0
    4.4427   30.8687  -12.0330 H   0  0  0  0  0  0  0  0  0  0  0  0
    5.1635   28.2194   -5.3000 H   0  0  0  0  0  0  0  0  0  0  0  0
    4.7861   26.6882   -7.2237 H   0  0  0  0  0  0  0  0  0  0  0  0
    2.7530   26.0281   -9.4650 H   0  0  0  0  0  0  0  0  0  0  0  0
    4.9645   27.2630   -7.7483 H   0  0  0  0  0  0  0  0  0  0  0  0
    3.9422   25.7958   -7.4286 H   0  0  0  0  0  0  0  0  0  0  0  0
    5.2768   24.4454   -8.8347 H   0  0  0  0  0  0  0  0  0  0  0  0
    6.5535   25.6426   -8.3590 H   0  0  0  0  0  0  0  0  0  0  0  0
    5.1808   32.6004  -10.2141 H   0  0  0  0  0  0  0  0  0  0  0  0
    2.1247   29.8206  -10.1888 H   0  0  0  0  0  0  0  0  0  0  0  0
    5.4567   32.5978   -7.6476 H   0  0  0  0  0  0  0  0  0  0  0  0
  2  4  1  0
  3  4  2  0
  1  8  1  0
  4  9  1  0
  8  9  1  0
  2 10  2  0
 10 11  1  0
 11 12  2  0
  3 12  1  0
  1 13  1  0
  5 13  2  0
  7 14  1  0
 14 15  1  0
  6 16  1  0
 15 16  1  0
  9 17  2  0
 10 18  1  0
 13 19  1  0
 14 19  1  0
  6 19  1  0
  1 20  1  0
  7 20  1  0
  2 21  1  0
 17 21  1  0
  7 22  2  0
  1 23  1  6
  3 24  1  0
  6 25  1  6
  6 26  1  0
  8 27  1  6
  8 28  1  0
 11 29  1  0
 12 30  1  0
 14 31  1  6
 15 32  1  1
 15 33  1  0
 16 34  1  6
 16 35  1  0
 17 36  1  0
 20 37  1  0
 21 38  1  0
M  END
