1L2S_STC_B_2115
     RDKit          3D

 19 20  0  0  0  0  0  0  0  0999 V2000
   79.3530    4.1940   30.7490 N   0  0  0  0  0  0  0  0  0  0  0  0
   80.5860    4.5600   31.3310 C   0  0  0  0  0  0  0  0  0  0  0  0
   81.6500    4.9890   30.5050 C   0  0  0  0  0  0  0  0  0  0  0  0
   80.7530    4.4920   32.7440 C   0  0  0  0  0  0  0  0  0  0  0  0
   82.8860    5.3510   31.0840 C   0  0  0  0  0  0  0  0  0  0  0  0
   81.9920    4.8590   33.3230 C   0  0  0  0  0  0  0  0  0  0  0  0
   83.0580    5.2860   32.4900 C   0  0  0  0  0  0  0  0  0  0  0  0
   84.5900    5.7290   33.1960 Cl  0  0  0  0  0  0  0  0  0  0  0  0
   78.1280    5.4030   30.5050 S   0  0  0  0  0  0  0  0  0  0  0  0
   78.3850    6.2750   28.8910 C   0  0  0  0  0  0  0  0  0  0  0  0
   76.8540    4.7400   30.4940 O   0  0  0  0  0  0  0  0  0  0  0  0
   78.1750    6.3450   31.5770 O   0  0  0  0  0  0  0  0  0  0  0  0
   78.5240    5.6870   27.6260 C   0  0  0  0  0  0  0  0  0  0  0  0
   78.4760    7.6600   28.7280 C   0  0  0  0  0  0  0  0  0  0  0  0
   78.6950    6.7220   26.6810 S   0  0  0  0  0  0  0  0  0  0  0  0
   78.4980    4.2410   27.3070 C   0  0  0  0  0  0  0  0  0  0  0  0
   78.6700    7.9340   27.3780 C   0  0  0  0  0  0  0  0  0  0  0  0
   78.3240    3.3350   28.2630 O   0  0  0  0  0  0  0  0  0  0  0  0
   78.6360    3.8840   26.1410 O   0  0  0  0  0  0  0  0  0  0  0  0
  1  2  1  0
  2  3  2  0
  2  4  1  0
  3  5  1  0
  4  6  2  0
  5  7  2  0
  6  7  1  0
  7  8  1  0
  1  9  1  0
  9 10  1  0
  9 11  2  0
  9 12  2  0
 10 13  2  0
 10 14  1  0
 13 15  1  0
 13 16  1  0
 14 17  2  0
 15 17  1  0
 16 18  1  0
 16 19  2  0
M  END
$$$$
