1L2S_STC_B_2115
     RDKit          3D

 27 28  0  0  0  0  0  0  0  0999 V2000
    1.3412    1.1463   -0.0600 N   0  0  0  0  0  0  0  0  0  0  0  0
    0.3158    0.8218    0.8931 C   0  0  0  0  0  0  0  0  0  0  0  0
   -0.5641    1.8272    1.3243 C   0  0  0  0  0  0  0  0  0  0  0  0
    0.1795   -0.4769    1.4180 C   0  0  0  0  0  0  0  0  0  0  0  0
   -1.5758    1.5373    2.2446 C   0  0  0  0  0  0  0  0  0  0  0  0
   -0.8335   -0.7640    2.3378 C   0  0  0  0  0  0  0  0  0  0  0  0
   -1.7134    0.2411    2.7498 C   0  0  0  0  0  0  0  0  0  0  0  0
   -2.9836   -0.1219    3.9037 Cl  0  0  0  0  0  0  0  0  0  0  0  0
    2.0955   -0.0312   -1.0879 S   0  0  0  0  0  6  0  0  0  0  0  0
    0.8878   -1.1389   -1.7425 C   0  0  0  0  0  0  0  0  0  0  0  0
    3.1208   -0.7890   -0.2918 O   0  0  0  0  0  0  0  0  0  0  0  0
    2.7873    0.6630   -2.2270 O   0  0  0  0  0  0  0  0  0  0  0  0
   -0.2754   -0.7564   -2.4240 C   0  0  0  0  0  0  0  0  0  0  0  0
    0.9925   -2.5281   -1.5665 C   0  0  0  0  0  0  0  0  0  0  0  0
   -1.1446   -2.1534   -2.7809 S   0  0  0  0  0  0  0  0  0  0  0  0
   -0.7216    0.5987   -2.7968 C   0  0  0  0  0  0  0  0  0  0  0  0
   -0.0709   -3.2445   -2.0944 C   0  0  0  0  0  0  0  0  0  0  0  0
    0.1073    1.7011   -2.6250 O   0  0  0  0  0  0  0  0  0  0  0  0
   -1.8674    0.7606   -3.2955 O   0  0  0  0  0  0  0  0  0  0  0  0
    1.5536    2.1507   -0.2533 H   0  0  0  0  0  0  0  0  0  0  0  0
   -0.4724    2.8344    0.9377 H   0  0  0  0  0  0  0  0  0  0  0  0
    0.8583   -1.2678    1.1329 H   0  0  0  0  0  0  0  0  0  0  0  0
   -2.2521    2.3204    2.5631 H   0  0  0  0  0  0  0  0  0  0  0  0
   -0.9304   -1.7673    2.7329 H   0  0  0  0  0  0  0  0  0  0  0  0
    1.8178   -3.0049   -1.0545 H   0  0  0  0  0  0  0  0  0  0  0  0
   -0.1884   -4.3191   -2.0618 H   0  0  0  0  0  0  0  0  0  0  0  0
   -0.2017    2.6306   -2.8828 H   0  0  0  0  0  0  0  0  0  0  0  0
  1  2  1  0
  2  3  2  0
  2  4  1  0
  3  5  1  0
  4  6  2  0
  5  7  2  0
  6  7  1  0
  7  8  1  0
  1  9  1  0
  9 10  1  0
  9 11  2  0
  9 12  2  0
 10 13  2  0
 10 14  1  0
 13 15  1  0
 13 16  1  0
 14 17  2  0
 15 17  1  0
 16 18  1  0
 16 19  2  0
  1 20  1  0
  3 21  1  0
  4 22  1  0
  5 23  1  0
  6 24  1  0
 14 25  1  0
 17 26  1  0
 18 27  1  0
M  END
