5S8I_2LY_A_1501
     RDKit          3D

 13 14  0  0  0  0  0  0  0  0999 V2000
  -18.6400   14.3533   23.5626 C   0  0  0  0  0  0  0  0  0  0  0  0
  -19.0319   14.7964   24.8876 N   0  0  0  0  0  0  0  0  0  0  0  0
  -19.4398   13.8642   25.8536 C   0  0  0  0  0  0  0  0  0  0  0  0
  -19.8170   14.3633   27.2070 C   0  0  0  0  0  0  0  0  0  0  0  0
  -19.9355   15.6501   27.6380 C   0  0  0  0  0  0  0  0  0  0  0  0
  -20.2869   15.8757   28.9049 C   0  0  0  0  0  0  0  0  0  0  0  0
  -20.5033   14.7385   29.6798 C   0  0  0  0  0  0  0  0  0  0  0  0
  -20.1978   13.3512   28.5746 S   0  0  0  0  0  0  0  0  0  0  0  0
  -20.4197   17.1989   29.3900 O   0  0  0  0  0  0  0  0  0  0  0  0
  -20.0450   18.2955   28.6170 C   0  0  0  0  0  0  0  0  0  0  0  0
  -20.3506   18.0125   27.1477 C   0  0  0  0  0  0  0  0  0  0  0  0
  -19.7097   16.8059   26.8290 O   0  0  0  0  0  0  0  0  0  0  0  0
  -19.4846   12.6390   25.5800 O   0  0  0  0  0  0  0  0  0  0  0  0
  1  2  1  6
  2  3  1  0
  3  4  1  0
  4  5  2  0
  5  6  1  0
  6  7  2  0
  7  8  1  0
  4  8  1  0
  6  9  1  0
 10  9  1  1
 10 11  1  0
  5 12  1  0
 11 12  1  1
  3 13  2  0
M  END
$$$$
