6ZK5_IMH_A_402
     RDKit          3D

 33 35  0  0  0  0  0  0  0  0999 V2000
   -9.2603  -12.1518   -1.7972 O   0  0  0  0  0  0  0  0  0  0  0  0
  -10.5793  -11.6115   -1.8401 C   0  0  0  0  0  0  0  0  0  0  0  0
  -11.2868  -12.0729   -3.1064 C   0  0  1  0  0  0  0  0  0  0  0  0
  -12.5604  -11.3735   -3.3744 N   0  0  0  0  0  0  0  0  0  0  0  0
  -10.5095  -11.8462   -4.4031 C   0  0  1  0  0  0  0  0  0  0  0  0
  -10.6914  -12.9139   -5.3262 O   0  0  0  0  0  0  0  0  0  0  0  0
  -11.0246  -10.5117   -4.9781 C   0  0  1  0  0  0  0  0  0  0  0  0
  -11.3551  -10.6223   -6.3575 O   0  0  0  0  0  0  0  0  0  0  0  0
  -12.2978  -10.1785   -4.1765 C   0  0  2  0  0  0  0  0  0  0  0  0
  -12.2018   -8.9883   -3.2751 C   0  0  0  0  0  0  0  0  0  0  0  0
  -11.0886   -8.2978   -2.8920 C   0  0  0  0  0  0  0  0  0  0  0  0
  -11.4143   -7.3670   -1.9439 N   0  0  0  0  0  4  0  0  0  0  0  0
  -12.7641   -7.4388   -1.6982 C   0  0  0  0  0  0  0  0  0  0  0  0
  -13.6879   -6.7912   -0.8626 C   0  0  0  0  0  0  0  0  0  0  0  0
  -13.2450   -5.9254   -0.0056 O   0  0  0  0  0  0  0  0  0  0  0  0
  -15.0157   -7.0699   -0.9099 N   0  0  0  0  0  0  0  0  0  0  0  0
  -15.4538   -8.0166   -1.7759 C   0  0  0  0  0  0  0  0  0  0  0  0
  -14.6307   -8.7243   -2.5883 N   0  0  0  0  0  0  0  0  0  0  0  0
  -13.3066   -8.4319   -2.5315 C   0  0  0  0  0  0  0  0  0  0  0  0
   -8.8151  -11.8542   -0.9884 H   0  0  0  0  0  0  0  0  0  0  0  0
  -10.5254  -10.5429   -1.8331 H   0  0  0  0  0  0  0  0  0  0  0  0
  -11.1273  -11.9515   -0.9864 H   0  0  0  0  0  0  0  0  0  0  0  0
  -11.4120  -13.1120   -2.8841 H   0  0  0  0  0  0  0  0  0  0  0  0
  -12.9925  -11.1025   -2.4910 H   0  0  0  0  0  0  0  0  0  0  0  0
   -9.4568  -11.8105   -4.2150 H   0  0  0  0  0  0  0  0  0  0  0  0
  -11.6338  -12.9998   -5.5397 H   0  0  0  0  0  0  0  0  0  0  0  0
  -10.2714   -9.7558   -4.8986 H   0  0  0  0  0  0  0  0  0  0  0  0
  -12.0384  -11.3010   -6.4729 H   0  0  0  0  0  0  0  0  0  0  0  0
  -13.0744   -9.9190   -4.8654 H   0  0  0  0  0  0  0  0  0  0  0  0
  -10.1388   -8.4551   -3.2638 H   0  0  0  0  0  0  0  0  0  0  0  0
  -10.7848   -6.7475   -1.5090 H   0  0  0  0  0  0  0  0  0  0  0  0
  -12.3295   -5.7290    0.0315 H   0  0  0  0  0  0  0  0  0  0  0  0
  -16.4668   -8.2087   -1.8190 H   0  0  0  0  0  0  0  0  0  0  0  0
  1  2  1  0
  3  2  1  0
  3  4  1  0
  3  5  1  0
  5  6  1  0
  5  7  1  0
  7  8  1  0
  4  9  1  0
  7  9  1  0
  9 10  1  0
 10 11  4  0
 11 12  4  0
 12 13  4  0
 13 14  4  0
 14 15  1  0
 14 16  4  0
 16 17  4  0
 17 18  4  0
 10 19  4  0
 13 19  4  0
 18 19  4  0
  1 20  1  0
  2 21  1  0
  2 22  1  0
  3 23  1  1
  4 24  1  0
  5 25  1  1
  6 26  1  0
  7 27  1  6
  8 28  1  0
  9 29  1  6
 11 30  1  0
 12 31  1  0
 15 32  1  0
 17 33  1  0
M  CHG  1  12   1
M  END
