7XBV_APC_A_601
     RDKit          3D

 49 51  0  0  0  0  0  0  0  0999 V2000
  -39.8006   12.2008    4.2544 P   0  0  2  0  0  5  0  0  0  0  0  0
  -40.0361   12.0688    2.7786 O   0  0  0  0  0  0  0  0  0  0  0  0
  -40.1857   10.9351    4.9927 O   0  0  0  0  0  0  0  0  0  0  0  0
  -40.4587   13.4241    4.8449 O   0  0  0  0  0  0  0  0  0  0  0  0
  -36.9527   11.6775    3.8897 P   0  0  1  0  0  5  0  0  0  0  0  0
  -36.1001   12.6619    3.1390 O   0  0  0  0  0  0  0  0  0  0  0  0
  -36.2776   10.8538    4.9516 O   0  0  0  0  0  0  0  0  0  0  0  0
  -38.2205   12.4771    4.4639 O   0  0  0  0  0  0  0  0  0  0  0  0
  -38.1925   11.3108    1.1730 P   0  0  1  0  0  5  0  0  0  0  0  0
  -37.9615   12.7885    1.3191 O   0  0  0  0  0  0  0  0  0  0  0  0
  -37.5162   10.6157    0.0289 O   0  0  0  0  0  0  0  0  0  0  0  0
  -37.6996   10.5130    2.7259 C   0  0  0  0  0  0  0  0  0  0  0  0
  -39.7498   11.0266    1.0899 O   0  0  0  0  0  0  0  0  0  0  0  0
  -40.2900    9.8559    1.7132 C   0  0  0  0  0  0  0  0  0  0  0  0
  -40.1952    9.9701    3.2111 C   0  0  1  0  0  0  0  0  0  0  0  0
  -41.1164    9.0461    3.8471 O   0  0  0  0  0  0  0  0  0  0  0  0
  -38.8182    9.5896    3.7628 C   0  0  1  0  0  0  0  0  0  0  0  0
  -37.9560   10.7137    3.6650 O   0  0  0  0  0  0  0  0  0  0  0  0
  -39.1683    9.1852    5.1924 C   0  0  1  0  0  0  0  0  0  0  0  0
  -39.3168   10.3224    6.0119 O   0  0  0  0  0  0  0  0  0  0  0  0
  -40.4947    8.4606    4.9778 C   0  0  2  0  0  0  0  0  0  0  0  0
  -40.3589    7.0241    4.7557 N   0  0  0  0  0  4  0  0  0  0  0  0
  -39.8558    6.3777    3.6475 C   0  0  0  0  0  0  0  0  0  0  0  0
  -39.9179    5.0713    3.7343 N   0  0  0  0  0  0  0  0  0  0  0  0
  -40.4980    4.8359    4.9735 C   0  0  0  0  0  0  0  0  0  0  0  0
  -40.8279    3.6514    5.6632 C   0  0  0  0  0  0  0  0  0  0  0  0
  -40.6219    2.4277    5.1874 N   0  0  0  0  0  0  0  0  0  0  0  0
  -41.3945    3.7790    6.8896 N   0  0  0  0  0  0  0  0  0  0  0  0
  -41.6029    5.0094    7.3731 C   0  0  0  0  0  0  0  0  0  0  0  0
  -41.3360    6.1869    6.8188 N   0  0  0  0  0  0  0  0  0  0  0  0
  -40.7775    6.0329    5.6070 C   0  0  0  0  0  0  0  0  0  0  0  0
  -41.1328   10.7648    4.8703 H   0  0  0  0  0  0  0  0  0  0  0  0
  -41.4219   13.3448    4.7623 H   0  0  0  0  0  0  0  0  0  0  0  0
  -35.8611   11.4418    5.6009 H   0  0  0  0  0  0  0  0  0  0  0  0
  -36.5613   10.7820    0.0684 H   0  0  0  0  0  0  0  0  0  0  0  0
  -38.5663   10.0805    3.1806 H   0  0  0  0  0  0  0  0  0  0  0  0
  -36.9674    9.7684    2.4930 H   0  0  0  0  0  0  0  0  0  0  0  0
  -39.7393    8.9976    1.3892 H   0  0  0  0  0  0  0  0  0  0  0  0
  -41.3188    9.7576    1.4362 H   0  0  0  0  0  0  0  0  0  0  0  0
  -40.4105   10.9969    3.4212 H   0  0  0  0  0  0  0  0  0  0  0  0
  -38.2935    8.8094    3.2519 H   0  0  0  0  0  0  0  0  0  0  0  0
  -38.3637   11.4735    4.1093 H   0  0  0  0  0  0  0  0  0  0  0  0
  -38.4274    8.5912    5.6856 H   0  0  0  0  0  0  0  0  0  0  0  0
  -39.9802   10.9151    5.6253 H   0  0  0  0  0  0  0  0  0  0  0  0
  -41.0726    8.5668    5.8722 H   0  0  0  0  0  0  0  0  0  0  0  0
  -39.4683    6.8735    2.8296 H   0  0  0  0  0  0  0  0  0  0  0  0
  -40.2125    2.3070    4.3002 H   0  0  0  0  0  0  0  0  0  0  0  0
  -40.8788    1.6419    5.7220 H   0  0  0  0  0  0  0  0  0  0  0  0
  -42.0325    5.0492    8.3105 H   0  0  0  0  0  0  0  0  0  0  0  0
  1  2  2  0
  1  3  1  1
  1  4  1  0
  5  6  2  0
  5  7  1  1
  1  8  1  0
  5  8  1  0
  9 10  2  0
  9 11  1  6
  5 12  1  0
  9 12  1  0
  9 13  1  0
 13 14  1  0
 15 14  1  0
 15 16  1  0
 15 17  1  0
 17 18  1  0
 17 19  1  0
 19 20  1  0
 16 21  1  0
 19 21  1  0
 21 22  1  0
 22 23  4  0
 23 24  4  0
 24 25  4  0
 25 26  4  0
 26 27  1  0
 26 28  4  0
 28 29  4  0
 29 30  4  0
 22 31  4  0
 25 31  4  0
 30 31  4  0
  3 32  1  0
  4 33  1  0
  7 34  1  0
 11 35  1  0
 12 36  1  0
 12 37  1  0
 14 38  1  0
 14 39  1  0
 15 40  1  6
 17 41  1  6
 18 42  1  0
 19 43  1  1
 20 44  1  0
 21 45  1  1
 23 46  1  0
 27 47  1  0
 27 48  1  0
 29 49  1  0
M  CHG  1  22   1
M  END
