7Z1Q_NIO_A_301
     RDKit          3D

 14 14  0  0  0  0  0  0  0  0999 V2000
    0.4441   20.1890   -6.1232 N   0  0  0  0  0  0  0  0  0  0  0  0
    1.4098   21.1156   -5.9860 C   0  0  0  0  0  0  0  0  0  0  0  0
    1.7546   21.6936   -4.7728 C   0  0  0  0  0  0  0  0  0  0  0  0
    1.0562   21.2750   -3.6473 C   0  0  0  0  0  0  0  0  0  0  0  0
    0.0502   20.3357   -3.7718 C   0  0  0  0  0  0  0  0  0  0  0  0
   -0.2195   19.8235   -5.0227 C   0  0  0  0  0  0  0  0  0  0  0  0
    2.8385   22.7109   -4.6823 C   0  0  0  0  0  0  0  0  0  0  0  0
    3.6425   22.8702   -5.5943 O   0  0  0  0  0  0  0  0  0  0  0  0
    2.8521   23.4245   -3.5826 O   0  0  0  0  0  0  0  0  0  0  0  0
    1.9230   21.4131   -6.8305 H   0  0  0  0  0  0  0  0  0  0  0  0
    1.2880   21.6647   -2.7202 H   0  0  0  0  0  0  0  0  0  0  0  0
   -0.4869   20.0248   -2.9471 H   0  0  0  0  0  0  0  0  0  0  0  0
   -0.9717   19.1227   -5.1137 H   0  0  0  0  0  0  0  0  0  0  0  0
    2.2162   23.2655   -2.9130 H   0  0  0  0  0  0  0  0  0  0  0  0
  1  2  4  0
  2  3  4  0
  3  4  4  0
  4  5  4  0
  1  6  4  0
  5  6  4  0
  3  7  1  0
  7  8  2  0
  7  9  1  0
  2 10  1  0
  4 11  1  0
  5 12  1  0
  6 13  1  0
  9 14  1  0
M  END
