1V0P_PVB_B_1287
     RDKit          3D

 30 32  0  0  0  0  0  0  0  0999 V2000
   25.0841   17.1495   16.6771 N   0  0  0  0  0  0  0  0  0  0  0  0
   25.0913   22.3370   17.0717 C   0  0  1  0  0  0  0  0  0  0  0  0
   25.1738   21.0406   17.8113 N   0  0  0  0  0  0  0  0  0  0  0  0
   25.1388   19.7996   17.3298 C   0  0  0  0  0  0  0  0  0  0  0  0
   24.9760   19.3929   15.9599 N   0  0  0  0  0  0  0  0  0  0  0  0
   24.9631   18.0752   15.6912 C   0  0  0  0  0  0  0  0  0  0  0  0
   25.2163   17.4622   17.9968 C   0  0  0  0  0  0  0  0  0  0  0  0
   25.2532   18.8029   18.3966 C   0  0  0  0  0  0  0  0  0  0  0  0
   25.3498   19.5054   19.5205 N   0  0  0  0  0  0  0  0  0  0  0  0
   25.3033   20.8472   19.1533 C   0  0  0  0  0  0  0  0  0  0  0  0
   25.3081   16.4713   18.9249 N   0  0  0  0  0  0  0  0  0  0  0  0
   25.3585   15.1750   18.5540 C   0  0  0  0  0  0  0  0  0  0  0  0
   26.0774   14.3001   19.3770 C   0  0  0  0  0  0  0  0  0  0  0  0
   26.1683   12.9409   19.0622 C   0  0  0  0  0  0  0  0  0  0  0  0
   25.5534   12.4571   17.8983 C   0  0  0  0  0  0  0  0  0  0  0  0
   24.7892   13.3807   17.0087 C   0  0  0  0  0  0  0  0  0  0  0  0
   24.1047   12.8892   15.7511 Cl  0  0  0  0  0  0  0  0  0  0  0  0
   24.7160   14.7304   17.3807 C   0  0  0  0  0  0  0  0  0  0  0  0
   25.6785   11.0025   17.5821 C   0  0  0  0  0  0  0  0  0  0  0  0
   26.4671   10.3356   18.2870 O   0  0  0  0  0  0  0  0  0  0  0  0
   24.9965   10.5277   16.6353 O   0  0  0  0  0  0  0  0  0  0  0  0
   24.8345   17.6929   14.4036 N   0  0  0  0  0  0  0  0  0  0  0  0
   24.6106   16.3032   14.0665 C   0  0  2  0  0  0  0  0  0  0  0  0
   25.4377   15.9267   12.8215 C   0  0  2  0  0  0  0  0  0  0  0  0
   26.9097   16.2911   13.0166 C   0  0  0  0  0  0  0  0  0  0  0  0
   24.9321   16.5733   11.5292 C   0  0  0  0  0  0  0  0  0  0  0  0
   23.0819   16.0734   14.0506 C   0  0  0  0  0  0  0  0  0  0  0  0
   22.4687   16.4256   12.8287 O   0  0  0  0  0  0  0  0  0  0  0  0
   26.0997   22.4302   15.9192 C   0  0  0  0  0  0  0  0  0  0  0  0
   23.6700   22.5703   16.5770 C   0  0  0  0  0  0  0  0  0  0  0  0
  2  3  1  0
  3  4  1  0
  4  5  2  0
  1  6  2  0
  5  6  1  0
  1  7  1  0
  4  8  1  0
  7  8  2  0
  8  9  1  0
  3 10  1  0
  9 10  2  0
  7 11  1  0
 11 12  1  0
 12 13  2  0
 13 14  1  0
 14 15  2  0
 15 16  1  0
 16 17  1  0
 12 18  1  0
 16 18  2  0
 15 19  1  0
 19 20  1  0
 19 21  2  0
  6 22  1  0
 22 23  1  0
 23 24  1  0
 24 25  1  1
 24 26  1  0
 23 27  1  6
 27 28  1  0
  2 29  1  6
  2 30  1  0
M  END
