7TSF_H4B_A_802
     RDKit          3D

 32 33  0  0  0  0  0  0  0  0999 V2000
   14.1732   -0.7482   44.0178 N   0  0  0  0  0  0  0  0  0  0  0  0
   14.1005   -2.0544   44.3889 C   0  0  0  0  0  0  0  0  0  0  0  0
   13.6858   -2.3912   45.7128 N   0  0  0  0  0  0  0  0  0  0  0  0
   14.4175   -3.0353   43.4963 N   0  0  0  0  0  0  0  0  0  0  0  0
   14.8220   -2.7281   42.2326 C   0  0  0  0  0  0  0  0  0  0  0  0
   15.1190   -3.6514   41.4274 O   0  0  0  0  0  0  0  0  0  0  0  0
   14.9141   -1.3864   41.8403 C   0  0  0  0  0  0  0  0  0  0  0  0
   14.5627   -0.3990   42.7650 C   0  0  0  0  0  0  0  0  0  0  0  0
   15.3604   -0.9977   40.5305 N   0  0  0  0  0  0  0  0  0  0  0  0
   14.6094    0.9775   42.3749 N   0  0  0  0  0  0  0  0  0  0  0  0
   15.7638    0.3956   40.2766 C   0  0  2  0  0  0  0  0  0  0  0  0
   14.7431    1.3364   40.9630 C   0  0  1  0  0  0  0  0  0  0  0  0
   15.9352    0.6605   38.7468 C   0  0  1  0  0  0  0  0  0  0  0  0
   14.6835    0.7106   38.1055 O   0  0  0  0  0  0  0  0  0  0  0  0
   16.7721    1.9259   38.4231 C   0  0  2  0  0  0  0  0  0  0  0  0
   15.9733    3.0242   37.7110 C   0  0  2  0  0  0  0  0  0  0  0  0
   17.8650    1.5533   37.6221 O   0  0  0  0  0  0  0  0  0  0  0  0
   13.6140   -3.3889   46.0122 H   0  0  0  0  0  0  0  0  0  0  0  0
   13.4496   -1.6397   46.3981 H   0  0  0  0  0  0  0  0  0  0  0  0
   14.3547   -4.0377   43.7862 H   0  0  0  0  0  0  0  0  0  0  0  0
   15.4336   -1.7227   39.7815 H   0  0  0  0  0  0  0  0  0  0  0  0
   14.4816    1.7275   43.0909 H   0  0  0  0  0  0  0  0  0  0  0  0
   16.7461    0.5469   40.7772 H   0  0  0  0  0  0  0  0  0  0  0  0
   13.7471    1.2261   40.4831 H   0  0  0  0  0  0  0  0  0  0  0  0
   15.0445    2.3984   40.8842 H   0  0  0  0  0  0  0  0  0  0  0  0
   16.5217   -0.1881   38.3215 H   0  0  0  0  0  0  0  0  0  0  0  0
   14.7881    1.2783   37.2976 H   0  0  0  0  0  0  0  0  0  0  0  0
   17.1532    2.3415   39.3860 H   0  0  0  0  0  0  0  0  0  0  0  0
   15.0746    3.2855   38.3092 H   0  0  0  0  0  0  0  0  0  0  0  0
   15.6141    2.6622   36.7262 H   0  0  0  0  0  0  0  0  0  0  0  0
   16.5854    3.9414   37.5804 H   0  0  0  0  0  0  0  0  0  0  0  0
   17.7320    1.9754   36.7330 H   0  0  0  0  0  0  0  0  0  0  0  0
  1  2  2  0
  2  3  1  0
  2  4  1  0
  4  5  1  0
  5  6  2  0
  5  7  1  0
  1  8  1  0
  7  8  2  0
  7  9  1  0
  8 10  1  0
  9 11  1  0
 10 12  1  0
 11 12  1  0
 11 13  1  0
 13 14  1  0
 13 15  1  0
 15 16  1  0
 15 17  1  0
  3 18  1  0
  3 19  1  0
  4 20  1  0
  9 21  1  0
 10 22  1  0
 11 23  1  1
 12 24  1  6
 12 25  1  0
 13 26  1  6
 14 27  1  0
 15 28  1  1
 16 29  1  1
 16 30  1  0
 16 31  1  0
 17 32  1  0
M  END
