7LOE_Y84_A_201
     RDKit          3D

 11 12  0  0  0  0  0  0  0  0999 V2000
   37.3678  -35.0993   19.9859 C   0  0  0  0  0  0  0  0  0  0  0  0
   35.2368  -34.7485   21.0216 C   0  0  0  0  0  0  0  0  0  0  0  0
   34.2574  -35.1420   21.9210 C   0  0  0  0  0  0  0  0  0  0  0  0
   34.4624  -36.2851   22.6676 C   0  0  0  0  0  0  0  0  0  0  0  0
   35.5985  -37.0618   22.5653 C   0  0  0  0  0  0  0  0  0  0  0  0
   36.5678  -36.6454   21.6547 C   0  0  0  0  0  0  0  0  0  0  0  0
   37.7276  -37.3849   21.5096 C   0  0  0  0  0  0  0  0  0  0  0  0
   38.7152  -37.0136   20.6222 C   0  0  0  0  0  0  0  0  0  0  0  0
   38.5082  -35.8702   19.8765 C   0  0  0  0  0  0  0  0  0  0  0  0
   36.3853  -35.5042   20.8957 C   0  0  0  0  0  0  0  0  0  0  0  0
   35.0239  -33.6239   20.2939 F   0  0  0  0  0  0  0  0  0  0  0  0
  2  3  2  0
  3  4  1  0
  4  5  2  0
  5  6  1  0
  6  7  1  0
  7  8  2  0
  8  9  1  0
  1  9  2  0
  6 10  2  0
  2 10  1  0
  1 10  1  0
  2 11  1  0
M  END
$$$$
