7WN5_JGL_A_501
     RDKit          3D

 37 41  0  0  0  0  0  0  0  0999 V2000
   21.2332   -4.8602  -22.6106 F   0  0  0  0  0  0  0  0  0  0  0  0
   21.4907   -5.3294  -21.3688 C   0  0  0  0  0  0  0  0  0  0  0  0
   22.3235   -4.6364  -20.5118 C   0  0  0  0  0  0  0  0  0  0  0  0
   22.6111   -5.0730  -19.2430 C   0  0  0  0  0  0  0  0  0  0  0  0
   23.4347   -4.3527  -18.4457 F   0  0  0  0  0  0  0  0  0  0  0  0
   22.0374   -6.2492  -18.8281 C   0  0  0  0  0  0  0  0  0  0  0  0
   21.2042   -6.9512  -19.6733 C   0  0  0  0  0  0  0  0  0  0  0  0
   20.9094   -6.5111  -20.9632 C   0  0  0  0  0  0  0  0  0  0  0  0
   20.0676   -7.2717  -21.7424 O   0  0  0  0  0  0  0  0  0  0  0  0
   19.9407   -8.6308  -21.7410 C   0  0  0  0  0  0  0  0  0  0  0  0
   20.8870   -9.5305  -21.3343 C   0  0  0  0  0  0  0  0  0  0  0  0
   20.6735  -10.8981  -21.3669 C   0  0  0  0  0  0  0  0  0  0  0  0
   19.4769  -11.4194  -21.8187 C   0  0  0  0  0  0  0  0  0  0  0  0
   19.3321  -12.8221  -21.8230 N   0  0  0  0  0  0  0  0  0  0  0  0
   18.0001  -13.6188  -22.5762 S   0  0  1  0  0  6  0  0  0  0  0  0
   17.1495  -12.5581  -23.2220 O   0  0  0  0  0  0  0  0  0  0  0  0
   18.4409  -14.5591  -23.6365 O   0  0  0  0  0  0  0  0  0  0  0  0
   17.0160  -14.4258  -21.3444 C   0  0  0  0  0  0  0  0  0  0  0  0
   16.5879  -13.4301  -20.2969 C   0  0  0  0  0  0  0  0  0  0  0  0
   18.5162  -10.5304  -22.2306 C   0  0  0  0  0  0  0  0  0  0  0  0
   18.7339   -9.1596  -22.1964 C   0  0  0  0  0  0  0  0  0  0  0  0
   17.6427   -8.3014  -22.6586 C   0  0  0  0  0  0  0  0  0  0  0  0
   16.9885   -7.4266  -21.8126 C   0  0  0  0  0  0  0  0  0  0  0  0
   15.9945   -6.6762  -22.3316 N   0  0  0  0  0  0  0  0  0  0  0  0
   15.3000   -5.7522  -21.4484 C   0  0  0  0  0  0  0  0  0  0  0  0
   15.6328   -6.7563  -23.6212 C   0  0  0  0  0  0  0  0  0  0  0  0
   14.7049   -6.0426  -24.0640 O   0  0  0  0  0  0  0  0  0  0  0  0
   16.2713   -7.6178  -24.4705 C   0  0  0  0  0  0  0  0  0  0  0  0
   16.1502   -7.9370  -25.8132 C   0  0  0  0  0  0  0  0  0  0  0  0
   17.2933   -8.4070  -23.9921 C   0  0  0  0  0  0  0  0  0  0  0  0
   17.7481   -9.1429  -24.9782 O   0  0  0  0  0  0  0  0  0  0  0  0
   17.0993   -8.9014  -26.0908 C   0  0  0  0  0  0  0  0  0  0  0  0
   17.3824   -9.5707  -27.3628 C   0  0  0  0  0  0  0  0  0  0  0  0
   16.6500   -9.4757  -28.5286 C   0  0  0  0  0  0  0  0  0  0  0  0
   17.2197  -10.2374  -29.4948 N   0  0  0  0  0  0  0  0  0  0  0  0
   18.3102  -10.8094  -28.9316 C   0  0  0  0  0  0  0  0  0  0  0  0
   18.4033  -10.4053  -27.6500 N   0  0  0  0  0  0  0  0  0  0  0  0
  1  2  1  0
  2  3  2  0
  3  4  1  0
  4  5  1  0
  4  6  2  0
  6  7  1  0
  2  8  1  0
  7  8  2  0
  8  9  1  0
  9 10  1  0
 10 11  2  0
 11 12  1  0
 12 13  2  0
 13 14  1  0
 15 14  1  1
 15 16  2  0
 15 17  2  0
 15 18  1  0
 18 19  1  6
 13 20  1  0
 10 21  1  0
 20 21  2  0
 21 22  1  0
 22 23  2  0
 23 24  1  0
 25 24  1  6
 24 26  1  0
 26 27  2  0
 26 28  1  0
 28 29  1  0
 28 30  2  0
 22 30  1  0
 30 31  1  0
 29 32  2  0
 31 32  1  0
 32 33  1  0
 33 34  2  0
 34 35  1  0
 35 36  2  0
 36 37  1  0
 33 37  1  0
M  END
$$$$
