7Z2O_IAJ_A_701
     RDKit          3D

 21 23  0  0  0  0  0  0  0  0999 V2000
  -11.9277    9.1419   21.8895 C   0  0  0  0  0  0  0  0  0  0  0  0
  -11.1371    8.0990   22.3968 C   0  0  0  0  0  0  0  0  0  0  0  0
  -11.7095    7.2251   23.3151 C   0  0  0  0  0  0  0  0  0  0  0  0
  -12.4242    5.5716   24.9054 C   0  0  0  0  0  0  0  0  0  0  0  0
  -14.4293    6.0165   25.3551 C   0  0  0  0  0  0  0  0  0  0  0  0
  -13.0369    7.3726   23.7288 C   0  0  0  0  0  0  0  0  0  0  0  0
  -12.7946    4.6354   25.7922 N   0  0  0  0  0  0  0  0  0  0  0  0
  -14.0685    4.9216   26.0751 N   0  0  0  0  0  0  0  0  0  0  0  0
  -13.2673    9.2967   22.3023 C   0  0  0  0  0  0  0  0  0  0  0  0
  -13.3873    6.4212   24.6195 N   0  0  0  0  0  0  0  0  0  0  0  0
  -16.0749    9.5274   23.2416 C   0  0  2  0  0  0  0  0  0  0  0  0
  -15.1706    8.5182   23.6769 O   0  0  0  0  0  0  0  0  0  0  0  0
  -13.8439    8.4040   23.2371 C   0  0  0  0  0  0  0  0  0  0  0  0
  -10.9806    5.8778   24.0871 S   0  0  0  0  0  0  0  0  0  0  0  0
  -11.5041    9.8345   21.1738 H   0  0  0  0  0  0  0  0  0  0  0  0
  -10.1091    7.9787   22.0811 H   0  0  0  0  0  0  0  0  0  0  0  0
  -15.4052    6.4822   25.3775 H   0  0  0  0  0  0  0  0  0  0  0  0
  -13.8430   10.1130   21.8881 H   0  0  0  0  0  0  0  0  0  0  0  0
  -17.0524    9.3796   23.7448 H   0  0  0  0  0  0  0  0  0  0  0  0
  -16.2255    9.4571   22.1437 H   0  0  0  0  0  0  0  0  0  0  0  0
  -15.6843   10.5316   23.5105 H   0  0  0  0  0  0  0  0  0  0  0  0
  1  2  2  0
  2  3  1  0
  3  6  2  0
  4  7  2  0
  5  8  2  0
  7  8  1  0
  1  9  1  0
  5 10  1  0
  6 10  1  0
  4 10  1  0
 11 12  1  0
 12 13  1  0
  6 13  1  0
  9 13  2  0
  4 14  1  0
  3 14  1  0
  1 15  1  0
  2 16  1  0
  5 17  1  0
  9 18  1  0
 11 19  1  1
 11 20  1  0
 11 21  1  0
M  END
