
     RDKit          3D

  9  9  0  0  0  0  0  0  0  0999 V2000
   -0.1108   13.8259   62.0390 O   0  0  0  0  0  0  0  0  0  0  0  0
   -1.5012   11.8635   62.3239 O   0  0  0  0  0  0  0  0  0  0  0  0
   -0.2443   13.5055   64.9916 N   0  0  0  0  0  0  0  0  0  0  0  0
   -0.9937   14.4438   62.9772 C   0  0  2  0  0  0  0  0  0  0  0  0
   -0.2311   15.5323   63.7327 C   0  0  0  0  0  0  0  0  0  0  0  0
    0.1609   14.9024   65.0717 C   0  0  0  0  0  0  0  0  0  0  0  0
   -1.4249   13.4972   64.0952 C   0  0  1  0  0  0  0  0  0  0  0  0
   -1.8176   12.1105   63.6161 C   0  0  0  0  0  0  0  0  0  0  0  0
   -2.2728   11.2095   64.3065 O   0  0  0  0  0  0  0  0  0  0  0  0
  4  1  1  6
  4  5  1  0
  5  6  1  0
  3  6  1  0
  4  7  1  0
  3  7  1  0
  7  8  1  6
  2  8  1  0
  8  9  2  0
M  END
