7DUA_HJ0_B_1101
     RDKit          3D

 23 26  0  0  0  0  0  0  0  0999 V2000
   26.1717   12.7112  -25.4947 C   0  0  0  0  0  0  0  0  0  0  0  0
   27.6577   10.9179  -24.7960 C   0  0  0  0  0  0  0  0  0  0  0  0
   28.7817   11.3039  -25.4968 C   0  0  0  0  0  0  0  0  0  0  0  0
   29.7651   10.3243  -25.3562 C   0  0  0  0  0  0  0  0  0  0  0  0
   31.1300   10.4058  -25.9672 C   0  0  0  0  0  0  0  0  0  0  0  0
   23.6578   13.0236  -25.1809 C   0  0  0  0  0  0  0  0  0  0  0  0
   23.8434   16.5255  -28.0005 C   0  0  0  0  0  0  0  0  0  0  0  0
   25.5981   15.2254  -27.2654 C   0  0  0  0  0  0  0  0  0  0  0  0
   24.7425   14.4700  -26.5155 C   0  0  0  0  0  0  0  0  0  0  0  0
   20.4755   14.6095  -26.4794 C   0  0  0  0  0  0  0  0  0  0  0  0
   20.7252   12.5917  -24.9037 C   0  0  0  0  0  0  0  0  0  0  0  0
   27.0973   13.2187  -26.2341 O   0  0  0  0  0  0  0  0  0  0  0  0
   26.4327   11.6383  -24.6246 N   0  0  0  0  0  0  0  0  0  0  0  0
   29.2231    9.3786  -24.5909 N   0  0  0  0  0  0  0  0  0  0  0  0
   27.9997    9.7127  -24.2582 N   0  0  0  0  0  0  0  0  0  0  0  0
   24.8862   13.3766  -25.6797 C   0  0  0  0  0  0  0  0  0  0  0  0
   22.7425   13.8886  -25.7024 N   0  0  0  0  0  0  0  0  0  0  0  0
   23.3861   14.7644  -26.5105 C   0  0  0  0  0  0  0  0  0  0  0  0
   22.9463   15.8263  -27.2831 N   0  0  0  0  0  0  0  0  0  0  0  0
   25.1576   16.2787  -28.0296 N   0  0  0  0  0  0  0  0  0  0  0  0
   26.9989   15.0088  -27.3052 N   0  0  0  0  0  0  0  0  0  0  0  0
   21.3139   13.8593  -25.4524 C   0  0  1  0  0  0  0  0  0  0  0  0
   20.7711   13.8490  -24.0839 C   0  0  0  0  0  0  0  0  0  0  0  0
  2  3  1  0
  3  4  2  0
  5  4  1  1
  8  9  1  0
  1 12  2  0
  2 13  1  0
  1 13  1  0
  4 14  1  0
 14 15  1  0
  2 15  2  0
  6 16  2  0
  1 16  1  0
  9 16  1  0
  6 17  1  0
 17 18  1  0
  9 18  2  0
 18 19  1  0
  7 19  2  0
  8 20  2  0
  7 20  1  0
  8 21  1  0
 11 22  1  6
 22 17  1  1
 10 22  1  6
 23 11  1  1
 22 23  1  0
M  END
$$$$
