7N7B_T3F_A_302
     RDKit          3D

 35 37  0  0  0  0  0  0  0  0999 V2000
   26.1451   -8.7560   16.4033 O   0  0  0  0  0  0  0  0  0  0  0  0
   25.9659   -8.0895   15.0793 P   0  0  2  0  0  0  0  0  0  0  0  0
   25.0881   -6.8782   14.9092 O   0  0  0  0  0  0  0  0  0  0  0  0
   25.5523   -9.2429   14.0457 O   0  0  0  0  0  0  0  0  0  0  0  0
   25.7327   -9.1231   12.6558 C   0  0  1  0  0  0  0  0  0  0  0  0
   26.5096   -8.0003   12.2793 O   0  0  0  0  0  0  0  0  0  0  0  0
   27.8598   -8.0176   12.8034 C   0  0  2  0  0  0  0  0  0  0  0  0
   28.4709   -6.6869   12.4311 C   0  0  0  0  0  0  0  0  0  0  0  0
   26.3720  -10.4134   12.1871 C   0  0  2  0  0  0  0  0  0  0  0  0
   25.6607  -11.4946   12.7636 O   0  0  0  0  0  0  0  0  0  0  0  0
   27.8478  -10.5080   12.5404 C   0  0  1  0  0  0  0  0  0  0  0  0
   28.4333  -11.6619   11.8375 N   0  0  0  0  0  0  0  0  0  0  0  0
   28.5936   -9.2041   12.2071 C   0  0  1  0  0  0  0  0  0  0  0  0
   28.6636   -9.0277   10.7876 O   0  0  0  0  0  0  0  0  0  0  0  0
   27.4199   -7.7687   14.5328 O   0  0  0  0  0  0  0  0  0  0  0  0
   28.5437   -6.6538   14.7468 P   0  0  1  0  0  0  0  0  0  0  0  0
   28.4739   -5.8943   13.4602 O   0  0  0  0  0  0  0  0  0  0  0  0
   28.3609   -6.0218   16.0919 O   0  0  0  0  0  0  0  0  0  0  0  0
   29.8702   -7.5213   14.7313 O   0  0  0  0  0  0  0  0  0  0  0  0
   29.8045   -8.8048   15.3192 C   0  0  0  0  0  0  0  0  0  0  0  0
   31.2140   -9.2293   15.6415 C   0  0  1  0  0  0  0  0  0  0  0  0
   32.1351   -8.1880   15.2353 O   0  0  0  0  0  0  0  0  0  0  0  0
   31.5147   -9.4639   17.1162 C   0  0  1  0  0  0  0  0  0  0  0  0
   31.0227  -10.7396   17.5429 O   0  0  0  0  0  0  0  0  0  0  0  0
   33.0376   -9.3428   17.0917 C   0  0  0  0  0  0  0  0  0  0  0  0
   33.2822   -8.2240   16.0683 C   0  0  2  0  0  0  0  0  0  0  0  0
   33.4466   -6.8908   16.6672 N   0  0  0  0  0  0  0  0  0  0  0  0
   34.7249   -6.3755   16.7372 C   0  0  0  0  0  0  0  0  0  0  0  0
   35.7047   -6.9757   16.3326 O   0  0  0  0  0  0  0  0  0  0  0  0
   34.8250   -5.1636   17.3572 N   0  0  0  0  0  0  0  0  0  0  0  0
   32.3749   -6.1955   17.1807 C   0  0  0  0  0  0  0  0  0  0  0  0
   32.4783   -4.9952   17.7694 C   0  0  0  0  0  0  0  0  0  0  0  0
   31.3002   -4.2560   18.3300 C   0  0  0  0  0  0  0  0  0  0  0  0
   33.7997   -4.4075   17.8886 C   0  0  0  0  0  0  0  0  0  0  0  0
   34.0608   -3.3379   18.4336 O   0  0  0  0  0  0  0  0  0  0  0  0
  2  1  1  1
  2  3  2  0
  2  4  1  0
  5  4  1  1
  5  6  1  0
  6  7  1  0
  7  8  1  6
  5  9  1  0
  9 10  1  1
  9 11  1  0
 11 12  1  6
  7 13  1  0
 11 13  1  0
 13 14  1  6
  2 15  1  0
 15 16  1  0
 16 17  1  6
 16 18  2  0
 16 19  1  0
 19 20  1  0
 21 20  1  1
 21 22  1  0
 21 23  1  0
 23 24  1  6
 23 25  1  0
 22 26  1  0
 25 26  1  0
 26 27  1  1
 27 28  1  0
 28 29  2  0
 28 30  1  0
 27 31  1  0
 31 32  2  0
 32 33  1  0
 30 34  1  0
 32 34  1  0
 34 35  2  0
M  END
