7MZS_GLA_A_301
     RDKit          3D

 12 12  0  0  0  0  0  0  0  0999 V2000
  -10.9600  -20.8078   -7.1462 C   0  0  1  0  0  0  0  0  0  0  0  0
   -9.9352  -19.8323   -7.6915 C   0  0  1  0  0  0  0  0  0  0  0  0
   -8.9024  -19.6647   -6.5912 C   0  0  2  0  0  0  0  0  0  0  0  0
   -9.6826  -18.9840   -5.4629 C   0  0  2  0  0  0  0  0  0  0  0  0
  -10.6285  -20.0701   -4.9854 C   0  0  1  0  0  0  0  0  0  0  0  0
  -11.3743  -19.6515   -3.7407 C   0  0  0  0  0  0  0  0  0  0  0  0
  -10.3512  -22.0655   -7.0374 O   0  0  0  0  0  0  0  0  0  0  0  0
   -9.4014  -20.3110   -8.8635 O   0  0  0  0  0  0  0  0  0  0  0  0
   -7.7780  -18.9959   -6.9680 O   0  0  0  0  0  0  0  0  0  0  0  0
  -10.4785  -18.0161   -6.0757 O   0  0  0  0  0  0  0  0  0  0  0  0
  -11.5287  -20.3815   -5.9739 O   0  0  0  0  0  0  0  0  0  0  0  0
  -12.3711  -18.7395   -4.0078 O   0  0  0  0  0  0  0  0  0  0  0  0
  1  2  1  0
  2  3  1  0
  3  4  1  0
  4  5  1  0
  5  6  1  0
  1  7  1  1
  2  8  1  6
  3  9  1  6
  4 10  1  6
  1 11  1  0
  5 11  1  6
  6 12  1  6
M  END
$$$$
