8A2D_KXY_A_1103
     RDKit          3D

 86 93  0  0  0  0  0  0  0  0999 V2000
    3.0329   -4.4132    2.3318 C   0  0  2  0  0  0  0  0  0  0  0  0
    2.0283   -5.5255    2.0916 C   0  0  0  0  0  0  0  0  0  0  0  0
    6.5471   -7.7062    2.5114 C   0  0  0  0  0  0  0  0  0  0  0  0
    4.1772   -4.8566    3.2124 C   0  0  0  0  0  0  0  0  0  0  0  0
    5.0991   -5.8615    2.9735 C   0  0  0  0  0  0  0  0  0  0  0  0
    5.3264   -6.9197    1.9409 C   0  0  0  0  0  0  0  0  0  0  0  0
    8.1442   -6.9930    4.5901 C   0  0  0  0  0  0  0  0  0  0  0  0
    0.5065   -0.2687    2.7232 C   0  0  0  0  0  0  0  0  0  0  0  0
    2.3698   -6.5106    1.3811 O   0  0  0  0  0  0  0  0  0  0  0  0
    0.5655    0.2854    1.3239 C   0  0  0  0  0  0  0  0  0  0  0  0
   -0.0637   -4.3344    2.8677 C   0  0  0  0  0  0  0  0  0  0  0  0
   -5.4644    4.1180   -2.8007 C   0  0  1  0  0  0  0  0  0  0  0  0
   -1.7241   -2.8758    2.4770 C   0  0  0  0  0  0  0  0  0  0  0  0
    1.2478   -1.4108    3.0473 C   0  0  0  0  0  0  0  0  0  0  0  0
    1.2047   -1.9789    4.2928 C   0  0  0  0  0  0  0  0  0  0  0  0
    1.9433   -3.1405    4.1914 C   0  0  0  0  0  0  0  0  0  0  0  0
    0.4258   -1.4539    5.3253 C   0  0  0  0  0  0  0  0  0  0  0  0
   -3.0786    3.0763    2.6268 C   0  0  0  0  0  0  0  0  0  0  0  0
   -3.1893    3.3336    1.2546 C   0  0  0  0  0  0  0  0  0  0  0  0
   -4.2158    4.1489    0.7714 C   0  0  0  0  0  0  0  0  0  0  0  0
    6.8197   -7.0239    3.8622 C   0  0  1  0  0  0  0  0  0  0  0  0
    5.9096   -5.9228    3.9964 N   0  0  0  0  0  4  0  0  0  0  0  0
    5.5349   -4.9830    4.8785 C   0  0  0  0  0  0  0  0  0  0  0  0
    4.4618   -4.2919    4.4158 N   0  0  0  0  0  0  0  0  0  0  0  0
    6.9983   -7.8776    5.0984 C   0  0  0  0  0  0  0  0  0  0  0  0
    2.3931   -3.2290    2.9161 N   0  0  0  0  0  4  0  0  0  0  0  0
   -0.3425    0.2622    3.7328 C   0  0  0  0  0  0  0  0  0  0  0  0
   -0.3569   -0.3164    5.0260 C   0  0  0  0  0  0  0  0  0  0  0  0
    0.3533   -2.1173    6.6739 C   0  0  1  0  0  0  0  0  0  0  0  0
   -0.5657   -1.4592    7.4778 F   0  0  0  0  0  0  0  0  0  0  0  0
   -0.0325   -3.4377    6.5191 F   0  0  0  0  0  0  0  0  0  0  0  0
   -1.2870    1.3082    3.4242 C   0  0  0  0  0  0  0  0  0  0  0  0
   -2.0913    2.1412    3.0946 C   0  0  0  0  0  0  0  0  0  0  0  0
   -5.1494    4.7112    1.6546 C   0  0  0  0  0  0  0  0  0  0  0  0
   -5.0204    4.4728    3.0374 C   0  0  0  0  0  0  0  0  0  0  0  0
   -3.9880    3.6585    3.5199 C   0  0  0  0  0  0  0  0  0  0  0  0
   -6.3013    5.5314    1.1200 C   0  0  0  0  0  0  0  0  0  0  0  0
    1.9649   -2.1838    2.2089 N   0  0  0  0  0  0  0  0  0  0  0  0
    0.7364   -5.5157    2.7294 N   0  0  0  0  0  0  0  0  0  0  0  0
    0.2565   -3.1033    3.9637 S   0  0  0  0  0  0  0  0  0  0  0  0
   -1.0692   -2.1835    3.4877 C   0  0  0  0  0  0  0  0  0  0  0  0
   -1.1646   -4.0691    2.1333 N   0  0  0  0  0  0  0  0  0  0  0  0
   -7.1787    4.8620   -1.0863 C   0  0  0  0  0  0  0  0  0  0  0  0
   -6.5295    3.6582   -1.7796 C   0  0  0  0  0  0  0  0  0  0  0  0
   -4.7040    5.3737   -2.3087 C   0  0  0  0  0  0  0  0  0  0  0  0
   -4.7999    5.5336   -0.7876 C   0  0  0  0  0  0  0  0  0  0  0  0
   -6.2041    5.7055   -0.3430 N   0  0  0  0  0  0  0  0  0  0  0  0
   -4.5015    2.9560   -3.1217 C   0  0  0  0  0  0  0  0  0  0  0  0
   -5.0020    1.7458   -2.6142 O   0  0  0  0  0  0  0  0  0  0  0  0
    3.4496   -4.1353    1.3355 H   0  0  0  0  0  0  0  0  0  0  0  0
    7.4210   -7.5978    1.8361 H   0  0  0  0  0  0  0  0  0  0  0  0
    6.2920   -8.7829    2.6416 H   0  0  0  0  0  0  0  0  0  0  0  0
    5.5601   -6.4624    0.9548 H   0  0  0  0  0  0  0  0  0  0  0  0
    4.4397   -7.5819    1.8716 H   0  0  0  0  0  0  0  0  0  0  0  0
    8.3259   -6.0901    5.2073 H   0  0  0  0  0  0  0  0  0  0  0  0
    8.9650   -7.5414    4.0804 H   0  0  0  0  0  0  0  0  0  0  0  0
    0.0023   -0.3637    0.6256 H   0  0  0  0  0  0  0  0  0  0  0  0
    0.1733    1.3181    1.2744 H   0  0  0  0  0  0  0  0  0  0  0  0
    1.6270    0.3373    0.9971 H   0  0  0  0  0  0  0  0  0  0  0  0
   -5.9950    4.3843   -3.7466 H   0  0  0  0  0  0  0  0  0  0  0  0
   -2.6198   -2.5076    1.9985 H   0  0  0  0  0  0  0  0  0  0  0  0
    2.0785   -3.9037    4.9487 H   0  0  0  0  0  0  0  0  0  0  0  0
   -2.4971    2.8861    0.5535 H   0  0  0  0  0  0  0  0  0  0  0  0
   -4.2997    4.3205   -0.2944 H   0  0  0  0  0  0  0  0  0  0  0  0
    6.0183   -4.8037    5.8286 H   0  0  0  0  0  0  0  0  0  0  0  0
    7.1738   -8.9604    4.9213 H   0  0  0  0  0  0  0  0  0  0  0  0
    6.5217   -7.4948    6.0265 H   0  0  0  0  0  0  0  0  0  0  0  0
   -1.0126    0.0936    5.7859 H   0  0  0  0  0  0  0  0  0  0  0  0
    1.3417   -2.0996    7.1818 H   0  0  0  0  0  0  0  0  0  0  0  0
   -5.7332    4.9007    3.7336 H   0  0  0  0  0  0  0  0  0  0  0  0
   -3.9135    3.4675    4.5872 H   0  0  0  0  0  0  0  0  0  0  0  0
   -7.2401    4.9956    1.3724 H   0  0  0  0  0  0  0  0  0  0  0  0
   -6.3571    6.5275    1.6187 H   0  0  0  0  0  0  0  0  0  0  0  0
    0.3355   -6.4003    3.1053 H   0  0  0  0  0  0  0  0  0  0  0  0
   -1.3580   -1.2202    3.8946 H   0  0  0  0  0  0  0  0  0  0  0  0
   -7.9951    4.4830   -0.4346 H   0  0  0  0  0  0  0  0  0  0  0  0
   -7.6690    5.4898   -1.8637 H   0  0  0  0  0  0  0  0  0  0  0  0
   -7.3196    3.0716   -2.3077 H   0  0  0  0  0  0  0  0  0  0  0  0
   -6.0778    2.9984   -1.0031 H   0  0  0  0  0  0  0  0  0  0  0  0
   -3.6357    5.3481   -2.6110 H   0  0  0  0  0  0  0  0  0  0  0  0
   -5.1443    6.2755   -2.7868 H   0  0  0  0  0  0  0  0  0  0  0  0
   -4.3307    4.6453   -0.3052 H   0  0  0  0  0  0  0  0  0  0  0  0
   -4.2123    6.4292   -0.4933 H   0  0  0  0  0  0  0  0  0  0  0  0
   -4.3676    2.8613   -4.2183 H   0  0  0  0  0  0  0  0  0  0  0  0
   -3.4960    3.1638   -2.6798 H   0  0  0  0  0  0  0  0  0  0  0  0
   -4.8119    1.7409   -1.6410 H   0  0  0  0  0  0  0  0  0  0  0  0
  1  2  1  0
  1  4  1  0
  4  5  4  0
  5  6  1  0
  3  6  1  0
  2  9  2  0
  8 10  1  0
  8 14  4  0
 14 15  4  0
 15 16  4  0
 15 17  4  0
 18 19  4  0
 19 20  4  0
 21  7  1  1
  3 21  1  0
  5 22  4  0
 21 22  1  0
 22 23  4  0
 23 24  4  0
  4 24  4  0
  7 25  1  0
 21 25  1  0
  1 26  1  0
 16 26  4  0
  8 27  4  0
 27 28  4  0
 17 28  4  0
 17 29  1  0
 29 30  1  0
 29 31  1  0
 27 32  1  0
 18 33  1  0
 32 33  3  0
 20 34  4  0
 34 35  4  0
 35 36  4  0
 18 36  4  0
 34 37  1  0
 14 38  4  0
 26 38  4  0
  2 39  1  0
 11 39  1  0
 11 40  4  0
 13 41  4  0
 40 41  4  0
 11 42  4  0
 13 42  4  0
 12 44  1  0
 43 44  1  0
 12 45  1  0
 45 46  1  0
 43 47  1  0
 46 47  1  0
 37 47  1  0
 12 48  1  0
 48 49  1  0
  1 50  1  1
  3 51  1  0
  3 52  1  0
  6 53  1  0
  6 54  1  0
  7 55  1  0
  7 56  1  0
 10 57  1  0
 10 58  1  0
 10 59  1  0
 12 60  1  1
 13 61  1  0
 16 62  1  0
 19 63  1  0
 20 64  1  0
 23 65  1  0
 25 66  1  0
 25 67  1  0
 28 68  1  0
 29 69  1  6
 35 70  1  0
 36 71  1  0
 37 72  1  0
 37 73  1  0
 39 74  1  0
 41 75  1  0
 43 76  1  0
 43 77  1  0
 44 78  1  0
 44 79  1  0
 45 80  1  0
 45 81  1  0
 46 82  1  0
 46 83  1  0
 48 84  1  0
 48 85  1  0
 49 86  1  0
M  CHG  2  22   1  26   1
M  END
