6XBO_5MC_A_401
     RDKit          3D

 38 39  0  0  0  0  0  0  0  0999 V2000
   14.8721  -10.5891   10.6015 P   0  0  2  0  0  5  0  0  0  0  0  0
   15.7825  -10.2765    9.4346 O   0  0  0  0  0  0  0  0  0  0  0  0
   13.2680  -10.3035   10.1453 O   0  0  0  0  0  0  0  0  0  0  0  0
   15.2598   -9.5858   11.9093 O   0  0  0  0  0  0  0  0  0  0  0  0
   15.0356  -12.2270   11.0444 O   0  0  0  0  0  0  0  0  0  0  0  0
   15.8328  -12.8748   10.0802 C   0  0  2  0  0  0  0  0  0  0  0  0
   16.1857  -14.2880   10.5591 C   0  0  1  0  0  0  0  0  0  0  0  0
   15.8522  -15.2313    9.5692 O   0  0  0  0  0  0  0  0  0  0  0  0
   17.6666  -14.4495   10.8791 C   0  0  1  0  0  0  0  0  0  0  0  0
   17.9534  -14.0712   12.2014 O   0  0  0  0  0  0  0  0  0  0  0  0
   17.8909  -15.9285   10.6542 C   0  0  1  0  0  0  0  0  0  0  0  0
   17.7860  -16.6519   11.8561 O   0  0  0  0  0  0  0  0  0  0  0  0
   16.7417  -16.3217    9.7140 C   0  0  2  0  0  0  0  0  0  0  0  0
   17.2657  -16.7310    8.3930 N   0  0  0  0  0  0  0  0  0  0  0  0
   17.5374  -18.0470    8.1173 C   0  0  0  0  0  0  0  0  0  0  0  0
   17.3280  -18.9451    8.9768 O   0  0  0  0  0  0  0  0  0  0  0  0
   18.0433  -18.4026    6.9093 N   0  0  0  0  0  0  0  0  0  0  0  0
   18.3112  -17.4872    5.9445 C   0  0  0  0  0  0  0  0  0  0  0  0
   18.8416  -17.9368    4.6931 N   0  0  0  0  0  0  0  0  0  0  0  0
   18.0712  -16.1267    6.2018 C   0  0  0  0  0  0  0  0  0  0  0  0
   17.5507  -15.7771    7.4539 C   0  0  0  0  0  0  0  0  0  0  0  0
   18.3635  -15.0600    5.1821 C   0  0  1  0  0  0  0  0  0  0  0  0
   12.7252  -10.6704   10.8882 H   0  0  0  0  0  0  0  0  0  0  0  0
   14.4588   -9.0178   12.0381 H   0  0  0  0  0  0  0  0  0  0  0  0
   16.7863  -12.3198    9.9303 H   0  0  0  0  0  0  0  0  0  0  0  0
   15.3020  -12.9537    9.1042 H   0  0  0  0  0  0  0  0  0  0  0  0
   15.5832  -14.5090   11.4704 H   0  0  0  0  0  0  0  0  0  0  0  0
   18.3018  -13.8790   10.1604 H   0  0  0  0  0  0  0  0  0  0  0  0
   17.7191  -13.1098   12.2775 H   0  0  0  0  0  0  0  0  0  0  0  0
   18.8862  -16.1069   10.1802 H   0  0  0  0  0  0  0  0  0  0  0  0
   18.0843  -16.0449   12.5829 H   0  0  0  0  0  0  0  0  0  0  0  0
   16.1532  -17.1518   10.1658 H   0  0  0  0  0  0  0  0  0  0  0  0
   18.9988  -17.2910    3.8890 H   0  0  0  0  0  0  0  0  0  0  0  0
   19.0838  -18.9443    4.5644 H   0  0  0  0  0  0  0  0  0  0  0  0
   17.3789  -14.7320    7.6758 H   0  0  0  0  0  0  0  0  0  0  0  0
   17.5614  -15.0442    4.4145 H   0  0  0  0  0  0  0  0  0  0  0  0
   18.4142  -14.0519    5.6464 H   0  0  0  0  0  0  0  0  0  0  0  0
   19.3399  -15.2640    4.6946 H   0  0  0  0  0  0  0  0  0  0  0  0
  1  2  2  0
  1  3  1  6
  1  4  1  0
  1  5  1  0
  5  6  1  0
  7  6  1  0
  7  8  1  0
  7  9  1  0
  9 10  1  0
  9 11  1  0
 11 12  1  0
  8 13  1  0
 11 13  1  0
 13 14  1  0
 14 15  1  0
 15 16  2  0
 15 17  1  0
 17 18  2  0
 18 19  1  0
 18 20  1  0
 14 21  1  0
 20 21  2  0
 20 22  1  0
  3 23  1  0
  4 24  1  0
  6 25  1  6
  6 26  1  0
  7 27  1  1
  9 28  1  6
 10 29  1  0
 11 30  1  6
 12 31  1  0
 13 32  1  1
 19 33  1  0
 19 34  1  0
 21 35  1  0
 22 36  1  6
 22 37  1  0
 22 38  1  0
M  END
