@<TRIPOS>MOLECULE
1HNN_SKF_A_3001
 26 27 0 0 0
SMALL
GASTEIGER

@<TRIPOS>ATOM
      1 C          -0.3012    1.1295   -1.2894 C.ar    1  UNL1       -0.0564
      2 C          -0.0085    1.8131   -0.1072 C.ar    1  UNL1       -0.0351
      3 C           0.1210    1.1133    1.0984 C.ar    1  UNL1        0.1053
      4 C          -0.0363   -0.2785    1.1124 C.ar    1  UNL1       -0.0307
      5 S           0.5169    1.9729    2.5836 S.O2    1  UNL1        0.0560
      6 C          -0.3458   -0.9718   -0.0679 C.ar    1  UNL1       -0.0285
      7 C          -0.4556   -0.2646   -1.2837 C.ar    1  UNL1       -0.0417
      8 O          -0.0165    3.3766    2.5183 O.2     1  UNL1       -0.1533
      9 O          -0.1102    1.2744    3.7574 O.2     1  UNL1       -0.1533
     10 N           2.2326    2.0178    2.7883 N.3     1  UNL1       -0.2035
     11 C          -0.4517   -2.4791   -0.0402 C.3     1  UNL1        0.0216
     12 C          -0.6121   -2.4884   -2.4522 C.3     1  UNL1        0.0002
     13 C          -0.8251   -0.9736   -2.5605 C.3     1  UNL1       -0.0148
     14 N          -1.1782   -3.0099   -1.2022 N.3     1  UNL1       -0.3117
     15 H          -0.4069    1.6872   -2.2119 H       1  UNL1        0.0621
     16 H           0.1191    2.8878   -0.1337 H       1  UNL1        0.0637
     17 H           0.0864   -0.8242    2.0401 H       1  UNL1        0.0640
     18 H           2.6297    2.4693    1.9340 H       1  UNL1        0.1442
     19 H           2.5657    1.0277    2.7877 H       1  UNL1        0.1442
     20 H           0.5710   -2.9139   -0.0130 H       1  UNL1        0.0474
     21 H          -0.9755   -2.8008    0.8864 H       1  UNL1        0.0474
     22 H          -1.1047   -2.9891   -3.3131 H       1  UNL1        0.0427
     23 H           0.4743   -2.7245   -2.5068 H       1  UNL1        0.0427
     24 H          -1.8950   -0.7697   -2.7820 H       1  UNL1        0.0326
     25 H          -0.2150   -0.5824   -3.4035 H       1  UNL1        0.0326
     26 H          -2.1836   -2.7228   -1.1345 H       1  UNL1        0.1223
@<TRIPOS>BOND
     1     1     2   ar
     2     2     3   ar
     3     3     4   ar
     4     3     5    1
     5     4     6   ar
     6     1     7   ar
     7     6     7   ar
     8     5     8    2
     9     5     9    2
    10     5    10    1
    11     6    11    1
    12     7    13    1
    13    12    13    1
    14    11    14    1
    15    12    14    1
    16     1    15    1
    17     2    16    1
    18     4    17    1
    19    10    18    1
    20    10    19    1
    21    11    20    1
    22    11    21    1
    23    12    22    1
    24    12    23    1
    25    13    24    1
    26    13    25    1
    27    14    26    1
