1HNN_SKF_A_3001
     RDKit          3D

 26 27  0  0  0  0  0  0  0  0999 V2000
   28.3062   46.0574   16.9652 C   0  0  0  0  0  0  0  0  0  0  0  0
   27.9708   45.4914   15.7424 C   0  0  0  0  0  0  0  0  0  0  0  0
   28.1095   44.1109   15.5596 C   0  0  0  0  0  0  0  0  0  0  0  0
   28.5798   43.3151   16.5964 C   0  0  0  0  0  0  0  0  0  0  0  0
   27.6950   43.3780   14.0094 S   0  0  2  0  0  6  0  0  0  0  0  0
   28.9155   43.8801   17.8122 C   0  0  0  0  0  0  0  0  0  0  0  0
   28.7778   45.2597   18.0011 C   0  0  0  0  0  0  0  0  0  0  0  0
   26.5416   42.5138   14.1374 O   0  0  0  0  0  0  0  0  0  0  0  0
   28.7839   42.6233   13.4447 O   0  0  0  0  0  0  0  0  0  0  0  0
   27.3432   44.5592   13.0264 N   0  0  0  0  0  0  0  0  0  0  0  0
   29.3486   42.9918   18.9510 C   0  0  0  0  0  0  0  0  0  0  0  0
   29.2498   45.0095   20.4010 C   0  0  0  0  0  0  0  0  0  0  0  0
   29.4255   45.8998   19.1901 C   0  0  0  0  0  0  0  0  0  0  0  0
   29.9487   43.7347   20.0839 N   0  0  0  0  0  0  0  0  0  0  0  0
   28.2048   47.0748   17.1054 H   0  0  0  0  0  0  0  0  0  0  0  0
   27.6216   46.0847   14.9736 H   0  0  0  0  0  0  0  0  0  0  0  0
   28.6790   42.2972   16.4582 H   0  0  0  0  0  0  0  0  0  0  0  0
   26.5725   45.1045   13.4122 H   0  0  0  0  0  0  0  0  0  0  0  0
   27.0699   44.1778   12.1207 H   0  0  0  0  0  0  0  0  0  0  0  0
   30.0721   42.2956   18.5813 H   0  0  0  0  0  0  0  0  0  0  0  0
   28.4709   42.5057   19.3228 H   0  0  0  0  0  0  0  0  0  0  0  0
   28.2107   44.8281   20.5805 H   0  0  0  0  0  0  0  0  0  0  0  0
   29.6513   45.4655   21.2818 H   0  0  0  0  0  0  0  0  0  0  0  0
   28.9691   46.8495   19.3766 H   0  0  0  0  0  0  0  0  0  0  0  0
   30.4689   46.0370   18.9969 H   0  0  0  0  0  0  0  0  0  0  0  0
   30.9185   43.9485   19.8511 H   0  0  0  0  0  0  0  0  0  0  0  0
  1  2  2  0
  2  3  1  0
  3  4  2  0
  3  5  1  0
  4  6  1  0
  1  7  1  0
  6  7  2  0
  5  8  2  0
  5  9  2  0
  5 10  1  6
  6 11  1  0
  7 13  1  0
 12 13  1  0
 11 14  1  0
 12 14  1  0
  1 15  1  0
  2 16  1  0
  4 17  1  0
 10 18  1  0
 10 19  1  0
 11 20  1  0
 11 21  1  0
 12 22  1  0
 12 23  1  0
 13 24  1  0
 13 25  1  0
 14 26  1  0
M  END
