@<TRIPOS>MOLECULE
1HNN_SKF_A_3001
 26 27 0 0 0
SMALL
GASTEIGER

@<TRIPOS>ATOM
      1 C          28.3480   46.0370   16.7830 C.ar    1  UNL1       -0.0564
      2 C          27.8990   45.5320   15.5700 C.ar    1  UNL1       -0.0351
      3 C          27.8220   44.1470   15.3850 C.ar    1  UNL1        0.1053
      4 C          28.1930   43.2860   16.4100 C.ar    1  UNL1       -0.0307
      5 S          27.2610   43.4900   13.8470 S.O2    1  UNL1        0.0560
      6 C          28.6420   43.7900   17.6160 C.ar    1  UNL1       -0.0285
      7 C          28.7200   45.1740   17.8070 C.ar    1  UNL1       -0.0417
      8 O          27.4850   44.4300   12.7700 O.2     1  UNL1       -0.1533
      9 O          25.8660   43.1330   13.8730 O.2     1  UNL1       -0.1533
     10 N          28.1050   42.1870   13.5730 N.3     1  UNL1       -0.2035
     11 C          28.9650   42.8430   18.7440 C.3     1  UNL1        0.0216
     12 C          29.2110   44.8480   20.1940 C.3     1  UNL1        0.0002
     13 C          29.4880   45.7050   18.9780 C.3     1  UNL1       -0.0148
     14 N          29.7000   43.4830   19.8600 N.3     1  UNL1       -0.3117
     15 H          28.4057   47.0576   16.9248 H       1  UNL1        0.0621
     16 H          27.6239   46.1737   14.8100 H       1  UNL1        0.0637
     17 H          28.1331   42.2653   16.2703 H       1  UNL1        0.0640
     18 H          29.0971   42.4228   13.5514 H       1  UNL1        0.1442
     19 H          27.8310   41.7869   12.6756 H       1  UNL1        0.1442
     20 H          29.5647   42.0462   18.3562 H       1  UNL1        0.0474
     21 H          28.0337   42.4944   19.1391 H       1  UNL1        0.0474
     22 H          28.1614   44.8257   20.4008 H       1  UNL1        0.0427
     23 H          29.6997   45.2353   21.0635 H       1  UNL1        0.0427
     24 H          29.1859   46.7123   19.1754 H       1  UNL1        0.0326
     25 H          30.5348   45.6830   18.7574 H       1  UNL1        0.0326
     26 H          30.6846   43.5480   19.6017 H       1  UNL1        0.1223
@<TRIPOS>BOND
     1     1     2   ar
     2     2     3   ar
     3     3     4   ar
     4     3     5    1
     5     4     6   ar
     6     1     7   ar
     7     6     7   ar
     8     5     8    2
     9     5     9    2
    10     5    10    1
    11     6    11    1
    12     7    13    1
    13    12    13    1
    14    11    14    1
    15    12    14    1
    16     1    15    1
    17     2    16    1
    18     4    17    1
    19    10    18    1
    20    10    19    1
    21    11    20    1
    22    11    21    1
    23    12    22    1
    24    12    23    1
    25    13    24    1
    26    13    25    1
    27    14    26    1
