
     RDKit          3D

 17 18  0  0  0  0  0  0  0  0999 V2000
  -15.4446  -27.9231    1.8444 C   0  0  0  0  0  0  0  0  0  0  0  0
  -13.0611  -28.3440    2.0594 C   0  0  0  0  0  0  0  0  0  0  0  0
  -10.9884  -28.0449    3.4186 C   0  0  0  0  0  0  0  0  0  0  0  0
   -9.9617  -28.6955    2.7305 C   0  0  0  0  0  0  0  0  0  0  0  0
  -10.6604  -27.0157    4.3126 C   0  0  0  0  0  0  0  0  0  0  0  0
   -9.3269  -26.6544    4.5290 C   0  0  0  0  0  0  0  0  0  0  0  0
   -8.3200  -27.3213    3.8419 C   0  0  0  0  0  0  0  0  0  0  0  0
   -8.6276  -28.3356    2.9450 C   0  0  0  0  0  0  0  0  0  0  0  0
  -14.7418  -30.0176    2.9560 C   0  0  0  0  0  0  0  0  0  0  0  0
  -15.7929  -30.8525    2.2230 C   0  0  0  0  0  0  0  0  0  0  0  0
  -14.3597  -28.8461    2.1728 N   0  0  0  0  0  0  0  0  0  0  0  0
  -12.3559  -28.3380    3.2413 N   0  0  0  0  0  0  0  0  0  0  0  0
  -16.8328  -28.5580    1.9488 C   0  0  0  0  0  0  0  0  0  0  0  0
  -18.2016  -30.6280    1.4798 C   0  0  0  0  0  0  0  0  0  0  0  0
  -16.8104  -30.0015    1.4377 C   0  0  0  0  0  0  0  0  0  0  0  0
  -12.6119  -27.9808    0.9752 O   0  0  0  0  0  0  0  0  0  0  0  0
   -7.0065  -27.0040    4.0189 O   0  0  0  0  0  0  0  0  0  0  0  0
  3  4  4  0
  3  5  4  0
  5  6  4  0
  6  7  4  0
  4  8  4  0
  7  8  4  0
  9 10  1  0
  2 11  1  0
  9 11  1  0
  1 11  1  0
  3 12  1  0
  2 12  1  0
  1 13  1  0
 10 15  1  0
 13 15  1  0
 14 15  1  0
  2 16  2  0
  7 17  1  0
M  END
