7AVI_S2Q_B_1101
     RDKit          3D

 47 49  0  0  0  0  0  0  0  0999 V2000
    1.4556    3.1721   -0.6866 C   0  0  0  0  0  0  0  0  0  0  0  0
    0.6285    3.2840   -1.7590 C   0  0  0  0  0  0  0  0  0  0  0  0
   -0.1921    4.3943   -1.9200 C   0  0  0  0  0  0  0  0  0  0  0  0
   -0.1383    5.3970   -0.9266 C   0  0  0  0  0  0  0  0  0  0  0  0
   -1.0178    6.5784   -1.0222 C   0  0  0  0  0  0  0  0  0  0  0  0
   -3.0488    5.6101    0.1087 C   0  0  2  0  0  0  0  0  0  0  0  0
   -4.5750    5.6373   -0.0198 C   0  0  0  0  0  0  0  0  0  0  0  0
   -2.7713    3.2553    1.0307 C   0  0  0  0  0  0  0  0  0  0  0  0
   -1.5939    1.5494   -0.2187 C   0  0  0  0  0  0  0  0  0  0  0  0
    0.1399    1.6475   -3.7282 C   0  0  2  0  0  0  0  0  0  0  0  0
   -1.2117    2.3473   -3.9050 C   0  0  0  0  0  0  0  0  0  0  0  0
    2.1134    2.0435   -0.7422 O   0  0  0  0  0  0  0  0  0  0  0  0
    1.7584    1.3766   -1.8095 N   0  0  0  0  0  0  0  0  0  0  0  0
    0.8324    2.1155   -2.4724 C   0  0  0  0  0  0  0  0  0  0  0  0
    1.5285    4.1166    0.2814 N   0  0  0  0  0  0  0  0  0  0  0  0
    0.7371    5.2279    0.1802 C   0  0  0  0  0  0  0  0  0  0  0  0
   -2.4395    6.4298   -0.9377 N   0  0  0  0  0  0  0  0  0  0  0  0
   -0.5189    7.7275   -1.1641 O   0  0  0  0  0  0  0  0  0  0  0  0
   -2.4984    4.2007    0.0234 C   0  0  0  0  0  0  0  0  0  0  0  0
   -2.3152    1.9407    0.9098 C   0  0  0  0  0  0  0  0  0  0  0  0
   -1.7864    3.7919   -1.1180 C   0  0  0  0  0  0  0  0  0  0  0  0
   -1.3294    2.4708   -1.2382 C   0  0  0  0  0  0  0  0  0  0  0  0
    1.0305    1.8269   -4.9624 C   0  0  0  0  0  0  0  0  0  0  0  0
   -0.4820    1.9428   -2.6876 S   0  0  2  0  0  6  0  0  0  0  0  0
    0.8636    2.6110   -2.7530 O   0  0  0  0  0  0  0  0  0  0  0  0
   -1.2677    2.3160   -3.9143 O   0  0  0  0  0  0  0  0  0  0  0  0
   -0.2813    0.2259   -2.6369 N   0  0  0  0  0  0  0  0  0  0  0  0
   -0.8667    4.4724   -2.7583 H   0  0  0  0  0  0  0  0  0  0  0  0
   -2.8090    6.0452    1.1053 H   0  0  0  0  0  0  0  0  0  0  0  0
   -4.9020    5.3299   -1.0351 H   0  0  0  0  0  0  0  0  0  0  0  0
   -5.0342    4.9599    0.7316 H   0  0  0  0  0  0  0  0  0  0  0  0
   -4.9457    6.6679    0.1653 H   0  0  0  0  0  0  0  0  0  0  0  0
   -3.3517    3.5271    1.9025 H   0  0  0  0  0  0  0  0  0  0  0  0
   -1.2574    0.5237   -0.3072 H   0  0  0  0  0  0  0  0  0  0  0  0
   -0.0600    0.5580   -3.6212 H   0  0  0  0  0  0  0  0  0  0  0  0
   -1.0823    3.4410   -4.0273 H   0  0  0  0  0  0  0  0  0  0  0  0
   -1.8533    2.1640   -3.0166 H   0  0  0  0  0  0  0  0  0  0  0  0
   -1.7348    1.9498   -4.8007 H   0  0  0  0  0  0  0  0  0  0  0  0
    0.7899    5.9824    0.9547 H   0  0  0  0  0  0  0  0  0  0  0  0
   -3.0042    6.6382   -1.7925 H   0  0  0  0  0  0  0  0  0  0  0  0
   -2.5333    1.2195    1.6871 H   0  0  0  0  0  0  0  0  0  0  0  0
   -1.6020    4.4974   -1.9181 H   0  0  0  0  0  0  0  0  0  0  0  0
    0.5537    1.3475   -5.8442 H   0  0  0  0  0  0  0  0  0  0  0  0
    2.0156    1.3412   -4.7961 H   0  0  0  0  0  0  0  0  0  0  0  0
    1.1937    2.8986   -5.1961 H   0  0  0  0  0  0  0  0  0  0  0  0
    0.3363    0.0168   -1.8203 H   0  0  0  0  0  0  0  0  0  0  0  0
    0.2518   -0.0448   -3.4936 H   0  0  0  0  0  0  0  0  0  0  0  0
  1  2  4  0
  2  3  4  0
  3  4  4  0
  4  5  1  0
  6  7  1  0
 10 11  1  0
  1 12  4  0
 12 13  4  0
 10 14  1  0
  2 14  4  0
 13 14  4  0
  1 15  4  0
  4 16  4  0
 15 16  4  0
  6 17  1  0
  5 17  1  0
  5 18  2  0
  6 19  1  0
  8 19  4  0
  8 20  4  0
  9 20  4  0
 19 21  4  0
 21 22  4  0
  9 22  4  0
 10 23  1  0
 22 24  1  0
 24 25  2  0
 24 26  2  0
 24 27  1  6
  3 28  1  0
  6 29  1  6
  7 30  1  0
  7 31  1  0
  7 32  1  0
  8 33  1  0
  9 34  1  0
 10 35  1  6
 11 36  1  0
 11 37  1  0
 11 38  1  0
 16 39  1  0
 17 40  1  0
 20 41  1  0
 21 42  1  0
 23 43  1  0
 23 44  1  0
 23 45  1  0
 27 46  1  0
 27 47  1  0
M  END
