7UJF_R3V_A_601
     RDKit          3D

 65 69  0  0  0  0  0  0  0  0999 V2000
   -8.6633   -3.1844  -41.5646 C   0  0  2  0  0  0  0  0  0  0  0  0
   -9.6028   -3.0357  -42.7731 C   0  0  1  0  0  0  0  0  0  0  0  0
   -8.8152   -2.8343  -44.0795 C   0  0  2  0  0  0  0  0  0  0  0  0
  -10.4039   -4.3302  -42.7989 C   0  0  2  0  0  0  0  0  0  0  0  0
   -9.5207   -5.3223  -42.0758 C   0  0  2  0  0  0  0  0  0  0  0  0
   -8.7887   -4.5629  -41.0506 N   0  0  0  0  0  0  0  0  0  0  0  0
   -7.4668   -5.1494  -40.7475 C   0  0  2  0  0  0  0  0  0  0  0  0
   -7.4104   -6.6335  -41.1239 C   0  0  2  0  0  0  0  0  0  0  0  0
   -6.7025   -6.8048  -42.3529 O   0  0  0  0  0  0  0  0  0  0  0  0
   -5.8428   -7.8719  -42.6668 C   0  0  0  0  0  0  0  0  0  0  0  0
   -4.4911   -7.5864  -42.8667 C   0  0  0  0  0  0  0  0  0  0  0  0
   -3.5900   -8.5938  -43.2212 C   0  0  0  0  0  0  0  0  0  0  0  0
   -6.2868   -9.1958  -42.8268 C   0  0  0  0  0  0  0  0  0  0  0  0
   -5.3871  -10.1985  -43.2008 C   0  0  0  0  0  0  0  0  0  0  0  0
   -4.0097   -9.9307  -43.3491 C   0  0  0  0  0  0  0  0  0  0  0  0
   -3.0881  -11.0395  -43.8763 C   0  0  2  0  0  0  0  0  0  0  0  0
   -3.4129  -12.4602  -43.4261 C   0  0  0  0  0  0  0  0  0  0  0  0
   -4.2608  -12.7777  -42.3448 C   0  0  0  0  0  0  0  0  0  0  0  0
   -4.4645  -14.1107  -41.9742 C   0  0  0  0  0  0  0  0  0  0  0  0
   -3.8000  -15.1401  -42.6508 C   0  0  0  0  0  0  0  0  0  0  0  0
   -3.9957  -16.4703  -42.2847 O   0  0  0  0  0  0  0  0  0  0  0  0
   -2.9121  -14.8321  -43.6849 C   0  0  0  0  0  0  0  0  0  0  0  0
   -2.6941  -13.4965  -44.0541 C   0  0  0  0  0  0  0  0  0  0  0  0
   -1.6150  -13.1241  -45.0401 C   0  0  2  0  0  0  0  0  0  0  0  0
   -0.7329  -12.0034  -44.4489 C   0  0  1  0  0  0  0  0  0  0  0  0
   -1.5333  -10.8236  -43.7888 C   0  0  2  0  0  0  0  0  0  0  0  0
   -1.0168  -10.5738  -42.3681 C   0  0  0  0  0  0  0  0  0  0  0  0
   -1.2062  -11.5153  -41.3332 C   0  0  0  0  0  0  0  0  0  0  0  0
   -0.7209  -11.2669  -40.0457 C   0  0  0  0  0  0  0  0  0  0  0  0
   -0.0351  -10.0808  -39.7713 C   0  0  0  0  0  0  0  0  0  0  0  0
    0.2090   -9.1646  -40.7950 C   0  0  0  0  0  0  0  0  0  0  0  0
   -0.2550   -9.4212  -42.0897 C   0  0  0  0  0  0  0  0  0  0  0  0
   -8.9641   -2.4793  -40.7612 H   0  0  0  0  0  0  0  0  0  0  0  0
   -7.6139   -2.9289  -41.8427 H   0  0  0  0  0  0  0  0  0  0  0  0
  -10.2809   -2.1655  -42.6360 H   0  0  0  0  0  0  0  0  0  0  0  0
   -7.7497   -3.1182  -43.9261 H   0  0  0  0  0  0  0  0  0  0  0  0
   -8.8416   -1.7631  -44.3870 H   0  0  0  0  0  0  0  0  0  0  0  0
   -9.2444   -3.4594  -44.8970 H   0  0  0  0  0  0  0  0  0  0  0  0
  -10.6607   -4.6789  -43.8251 H   0  0  0  0  0  0  0  0  0  0  0  0
  -11.3435   -4.1904  -42.2221 H   0  0  0  0  0  0  0  0  0  0  0  0
   -8.8306   -5.7926  -42.8138 H   0  0  0  0  0  0  0  0  0  0  0  0
  -10.1384   -6.1139  -41.5958 H   0  0  0  0  0  0  0  0  0  0  0  0
   -7.2744   -5.0675  -39.6554 H   0  0  0  0  0  0  0  0  0  0  0  0
   -6.6564   -4.6000  -41.2812 H   0  0  0  0  0  0  0  0  0  0  0  0
   -8.4458   -7.0037  -41.2772 H   0  0  0  0  0  0  0  0  0  0  0  0
   -6.9565   -7.2424  -40.3140 H   0  0  0  0  0  0  0  0  0  0  0  0
   -4.1405   -6.5660  -42.7763 H   0  0  0  0  0  0  0  0  0  0  0  0
   -2.5838   -8.2959  -43.4429 H   0  0  0  0  0  0  0  0  0  0  0  0
   -7.3268   -9.4605  -42.7023 H   0  0  0  0  0  0  0  0  0  0  0  0
   -5.7732  -11.1918  -43.3905 H   0  0  0  0  0  0  0  0  0  0  0  0
   -3.3152  -11.0245  -44.9661 H   0  0  0  0  0  0  0  0  0  0  0  0
   -4.7433  -12.0073  -41.7614 H   0  0  0  0  0  0  0  0  0  0  0  0
   -5.1260  -14.3421  -41.1477 H   0  0  0  0  0  0  0  0  0  0  0  0
   -4.6663  -16.7281  -41.5683 H   0  0  0  0  0  0  0  0  0  0  0  0
   -2.3659  -15.6308  -44.1695 H   0  0  0  0  0  0  0  0  0  0  0  0
   -2.0826  -12.7799  -45.9842 H   0  0  0  0  0  0  0  0  0  0  0  0
   -0.9770  -14.0004  -45.2777 H   0  0  0  0  0  0  0  0  0  0  0  0
   -0.0593  -12.4775  -43.7038 H   0  0  0  0  0  0  0  0  0  0  0  0
   -0.0623  -11.6067  -45.2447 H   0  0  0  0  0  0  0  0  0  0  0  0
   -1.3126   -9.9222  -44.4057 H   0  0  0  0  0  0  0  0  0  0  0  0
   -1.6833  -12.4651  -41.5224 H   0  0  0  0  0  0  0  0  0  0  0  0
   -0.8761  -11.9925  -39.2541 H   0  0  0  0  0  0  0  0  0  0  0  0
    0.3331   -9.8845  -38.7743 H   0  0  0  0  0  0  0  0  0  0  0  0
    0.7658   -8.2574  -40.5878 H   0  0  0  0  0  0  0  0  0  0  0  0
   -0.0206   -8.7150  -42.8761 H   0  0  0  0  0  0  0  0  0  0  0  0
  1  2  1  0
  2  3  1  0
  2  4  1  0
  4  5  1  0
  1  6  1  0
  5  6  1  0
  6  7  1  0
  7  8  1  0
  8  9  1  0
  9 10  1  0
 10 11  2  0
 11 12  1  0
 10 13  1  0
 13 14  2  0
 14 15  1  0
 12 15  2  0
 16 15  1  0
 16 17  1  0
 17 18  2  0
 18 19  1  0
 19 20  2  0
 20 21  1  0
 20 22  1  0
 17 23  1  0
 22 23  2  0
 23 24  1  0
 24 25  1  0
 16 26  1  0
 25 26  1  0
 26 27  1  0
 27 28  2  0
 28 29  1  0
 29 30  2  0
 30 31  1  0
 31 32  2  0
 27 32  1  0
  1 33  1  1
  1 34  1  0
  2 35  1  1
  3 36  1  1
  3 37  1  0
  3 38  1  0
  4 39  1  6
  4 40  1  0
  5 41  1  6
  5 42  1  0
  7 43  1  1
  7 44  1  0
  8 45  1  6
  8 46  1  0
 11 47  1  0
 12 48  1  0
 13 49  1  0
 14 50  1  0
 16 51  1  6
 18 52  1  0
 19 53  1  0
 21 54  1  0
 22 55  1  0
 24 56  1  6
 24 57  1  0
 25 58  1  1
 25 59  1  0
 26 60  1  6
 28 61  1  0
 29 62  1  0
 30 63  1  0
 31 64  1  0
 32 65  1  0
M  END
