8CGC_LMR_A_1001
     RDKit          3D

  9  8  0  0  0  0  0  0  0  0999 V2000
   67.7660   48.5549   14.0956 C   0  0  0  0  0  0  0  0  0  0  0  0
   67.8145   49.6679   13.4977 O   0  0  0  0  0  0  0  0  0  0  0  0
   67.3993   48.5951   15.4326 O   0  0  0  0  0  0  0  0  0  0  0  0
   68.0852   47.2920   13.3940 C   0  0  1  0  0  0  0  0  0  0  0  0
   69.0953   46.6412   14.1243 O   0  0  0  0  0  0  0  0  0  0  0  0
   66.8484   46.4068   13.2990 C   0  0  0  0  0  0  0  0  0  0  0  0
   67.2035   45.2285   12.4699 C   0  0  0  0  0  0  0  0  0  0  0  0
   66.2830   44.2170   12.2476 O   0  0  0  0  0  0  0  0  0  0  0  0
   68.3474   45.1431   11.9628 O   0  0  0  0  0  0  0  0  0  0  0  0
  1  2  2  0
  1  3  1  0
  1  4  1  0
  4  5  1  1
  4  6  1  0
  6  7  1  6
  7  8  1  0
  7  9  2  0
M  END
$$$$
