8DP2_UMA_A_501
     RDKit          3D

 49 51  0  0  0  0  0  0  0  0999 V2000
   38.8378  -13.1936   -5.4681 N   0  0  0  0  0  0  0  0  0  0  0  0
   37.6797  -12.8973   -4.8611 C   0  0  0  0  0  0  0  0  0  0  0  0
   37.0806  -11.7076   -4.9878 N   0  0  0  0  0  0  0  0  0  0  0  0
   37.5998  -10.7003   -5.7446 C   0  0  0  0  0  0  0  0  0  0  0  0
   38.7943  -10.9771   -6.3830 C   0  0  0  0  0  0  0  0  0  0  0  0
   39.4022  -12.2212   -6.2388 C   0  0  0  0  0  0  0  0  0  0  0  0
   37.1428  -13.7599   -4.1546 O   0  0  0  0  0  0  0  0  0  0  0  0
   37.0037   -9.6076   -5.8316 O   0  0  0  0  0  0  0  0  0  0  0  0
   39.5291  -14.4377   -5.3769 C   0  0  1  0  0  0  0  0  0  0  0  0
   39.5119  -15.2940   -6.5933 C   0  0  2  0  0  0  0  0  0  0  0  0
   38.4609  -16.2125   -6.6309 O   0  0  0  0  0  0  0  0  0  0  0  0
   40.7699  -16.1191   -6.4086 C   0  0  1  0  0  0  0  0  0  0  0  0
   41.6113  -15.2255   -5.5597 C   0  0  2  0  0  0  0  0  0  0  0  0
   40.8569  -14.2153   -5.0374 O   0  0  0  0  0  0  0  0  0  0  0  0
   40.4751  -17.2678   -5.6737 O   0  0  0  0  0  0  0  0  0  0  0  0
   42.7535  -14.6982   -6.4334 C   0  0  0  0  0  0  0  0  0  0  0  0
   43.3035  -13.5512   -5.9194 O   0  0  0  0  0  0  0  0  0  0  0  0
   43.2178  -12.2098   -6.9124 P   0  0  1  0  0  0  0  0  0  0  0  0
   41.8419  -11.5685   -6.9361 O   0  0  0  0  0  0  0  0  0  0  0  0
   44.3176  -11.0621   -6.2781 O   0  0  0  0  0  0  0  0  0  0  0  0
   43.7246  -12.5060   -8.4956 O   0  0  0  0  0  0  0  0  0  0  0  0
   43.4625  -11.2017   -9.5268 P   0  0  2  0  0  0  0  0  0  0  0  0
   42.3834  -10.3134   -8.9562 O   0  0  0  0  0  0  0  0  0  0  0  0
   42.8138  -11.8473  -10.9652 O   0  0  0  0  0  0  0  0  0  0  0  0
   44.8238  -10.2955   -9.8146 O   0  0  0  0  0  0  0  0  0  0  0  0
   45.7732  -10.8585  -10.6270 C   0  0  2  0  0  0  0  0  0  0  0  0
   47.0295   -9.9716  -10.5124 C   0  0  2  0  0  0  0  0  0  0  0  0
   47.5743  -10.0930   -9.1721 N   0  0  0  0  0  0  0  0  0  0  0  0
   48.9268   -9.8711   -8.8417 C   0  0  0  0  0  0  0  0  0  0  0  0
   49.7942   -9.6550   -9.7327 O   0  0  0  0  0  0  0  0  0  0  0  0
   49.2867   -9.9053   -7.3905 C   0  0  0  0  0  0  0  0  0  0  0  0
   46.5594   -8.5822  -10.8495 C   0  0  1  0  0  0  0  0  0  0  0  0
   47.5436   -7.6063  -10.8115 O   0  0  0  0  0  0  0  0  0  0  0  0
   46.1250   -8.6373  -12.3223 C   0  0  2  0  0  0  0  0  0  0  0  0
   45.6916   -7.4131  -12.7674 O   0  0  0  0  0  0  0  0  0  0  0  0
   45.0249   -9.6359  -12.4326 C   0  0  2  0  0  0  0  0  0  0  0  0
   45.3883  -10.8961  -11.9670 O   0  0  0  0  0  0  0  0  0  0  0  0
   44.6599   -9.7890  -13.8941 C   0  0  0  0  0  0  0  0  0  0  0  0
   43.9546  -10.9521  -14.1431 O   0  0  0  0  0  0  0  0  0  0  0  0
   47.1609   -6.4308  -10.1852 C   0  0  1  0  0  0  0  0  0  0  0  0
   48.1907   -6.0625   -9.1976 C   0  0  0  0  0  0  0  0  0  0  0  0
   49.2549   -5.5286   -9.6647 O   0  0  0  0  0  0  0  0  0  0  0  0
   47.1547   -5.2673  -11.1850 C   0  0  0  0  0  0  0  0  0  0  0  0
   48.0859   -6.2571   -7.8025 N   0  0  0  0  0  0  0  0  0  0  0  0
   49.2255   -5.8394   -6.9885 C   0  0  2  0  0  0  0  0  0  0  0  0
   50.3128   -6.8574   -7.0496 C   0  0  0  0  0  0  0  0  0  0  0  0
   50.1093   -8.0048   -7.5258 O   0  0  0  0  0  0  0  0  0  0  0  0
   51.5561   -6.5199   -6.5716 O   0  0  0  0  0  0  0  0  0  0  0  0
   48.7602   -5.8002   -5.5541 C   0  0  0  0  0  0  0  0  0  0  0  0
  1  2  1  0
  2  3  1  0
  3  4  1  0
  4  5  1  0
  1  6  1  0
  5  6  2  0
  2  7  2  0
  4  8  2  0
  9  1  1  6
  9 10  1  0
 10 11  1  1
 10 12  1  0
 12 13  1  0
  9 14  1  0
 13 14  1  0
 12 15  1  1
 13 16  1  6
 16 17  1  0
 17 18  1  0
 18 19  2  0
 18 20  1  1
 18 21  1  0
 21 22  1  0
 22 23  2  0
 22 24  1  6
 22 25  1  0
 26 25  1  1
 26 27  1  0
 27 28  1  1
 28 29  1  0
 29 30  2  0
 29 31  1  0
 27 32  1  0
 32 33  1  6
 32 34  1  0
 34 35  1  1
 34 36  1  0
 26 37  1  0
 36 37  1  0
 36 38  1  6
 38 39  1  0
 33 40  1  0
 40 41  1  0
 41 42  2  0
 40 43  1  6
 41 44  1  0
 44 45  1  0
 45 46  1  0
 46 47  2  0
 46 48  1  0
 45 49  1  1
M  END
$$$$
