
     RDKit          3D

 41 45  0  0  0  0  0  0  0  0999 V2000
   27.3258    4.9194   12.1264 O   0  0  0  0  0  0  0  0  0  0  0  0
   28.5700    3.1417   11.3518 N   0  0  0  0  0  0  0  0  0  0  0  0
   33.0806    6.4304    8.4315 O   0  0  0  0  0  0  0  0  0  0  0  0
   31.3357    3.7467   13.9533 N   0  0  0  0  0  0  0  0  0  0  0  0
   29.2345    4.3741   13.2654 N   0  0  0  0  0  0  0  0  0  0  0  0
   32.1374    3.8831   18.2161 C   0  0  0  0  0  0  0  0  0  0  0  0
   31.6641    2.8418   19.0086 C   0  0  0  0  0  0  0  0  0  0  0  0
   28.2400    4.8863   16.8632 C   0  0  0  0  0  0  0  0  0  0  0  0
   28.0565    5.9256   17.7768 C   0  0  0  0  0  0  0  0  0  0  0  0
   29.2016    6.4409   15.2868 C   0  0  0  0  0  0  0  0  0  0  0  0
   29.8279    6.8100   11.9196 O   0  0  0  0  0  0  0  0  0  0  0  0
   29.0159    7.4817   16.1993 C   0  0  0  0  0  0  0  0  0  0  0  0
   30.7857    1.8978   18.4807 C   0  0  0  0  0  0  0  0  0  0  0  0
   30.3717    1.9981   17.1494 C   0  0  0  0  0  0  0  0  0  0  0  0
   28.8113    5.1282   15.6000 C   0  0  0  0  0  0  0  0  0  0  0  0
   28.4481    7.2186   17.4408 C   0  0  0  0  0  0  0  0  0  0  0  0
   28.4779    8.7687   12.0693 C   0  0  0  0  0  0  0  0  0  0  0  0
   32.9183    4.6336   10.1016 C   0  0  0  0  0  0  0  0  0  0  0  0
   29.0351    3.9553   14.6425 C   0  0  2  0  0  0  0  0  0  0  0  0
   31.7179    3.9883   16.8871 C   0  0  0  0  0  0  0  0  0  0  0  0
   32.2682    4.1594   11.2407 C   0  0  0  0  0  0  0  0  0  0  0  0
   28.5670    1.3312   12.9733 C   0  0  0  0  0  0  0  0  0  0  0  0
   28.8563    1.8289   11.7598 C   0  0  0  0  0  0  0  0  0  0  0  0
   32.1682    2.7135   20.6499 Cl  0  0  0  0  0  0  0  0  0  0  0  0
   28.2992    4.1730   12.2564 C   0  0  0  0  0  0  0  0  0  0  0  0
   30.6491    8.6487   13.2897 C   0  0  0  0  0  0  0  0  0  0  0  0
   28.2250    8.4985   18.5666 Cl  0  0  0  0  0  0  0  0  0  0  0  0
   30.8197    3.0561   16.3399 C   0  0  0  0  0  0  0  0  0  0  0  0
   30.3420    3.1630   14.9053 C   0  0  2  0  0  0  0  0  0  0  0  0
   30.6090    4.3194   13.0339 C   0  0  0  0  0  0  0  0  0  0  0  0
   32.5277    5.8446    9.5388 C   0  0  0  0  0  0  0  0  0  0  0  0
   31.4851    6.5791   10.1239 C   0  0  0  0  0  0  0  0  0  0  0  0
   30.8224    6.1238   11.2699 C   0  0  0  0  0  0  0  0  0  0  0  0
   31.2151    4.8886   11.8118 C   0  0  0  0  0  0  0  0  0  0  0  0
   29.9095    8.2389   12.0174 C   0  0  0  0  0  0  0  0  0  0  0  0
   32.5838    6.0102    7.1661 C   0  0  0  0  0  0  0  0  0  0  0  0
   28.8422    3.4701    9.9458 C   0  0  0  0  0  0  0  0  0  0  0  0
   30.1328    2.8158    9.4626 C   0  0  0  0  0  0  0  0  0  0  0  0
   30.0616    1.3897    9.6714 N   0  0  0  0  0  0  0  0  0  0  0  0
   29.4890    0.8451   10.7876 C   0  0  0  0  0  0  0  0  0  0  0  0
   29.4917   -0.3697   10.9550 O   0  0  0  0  0  0  0  0  0  0  0  0
  6  7  4  0
  8  9  4  0
 10 12  4  0
  7 13  4  0
 13 14  4  0
 10 15  4  0
  8 15  4  0
 12 16  4  0
  9 16  4  0
  5 19  1  0
 19 15  1  1
  6 20  4  0
 18 21  4  0
  2 23  1  0
 22 23  2  0
  7 24  1  0
  2 25  1  0
  1 25  2  0
  5 25  1  0
 16 27  1  0
 14 28  4  0
 20 28  4  0
  4 29  1  0
 19 29  1  0
 29 28  1  1
  5 30  1  0
  4 30  2  0
  3 31  1  0
 18 31  4  0
 31 32  4  0
 32 33  4  0
 11 33  1  0
 33 34  4  0
 21 34  4  0
 30 34  1  0
 26 35  1  0
 11 35  1  0
 17 35  1  0
  3 36  1  0
  2 37  1  0
 37 38  1  0
 38 39  1  0
 39 40  1  0
 23 40  1  0
 40 41  2  0
M  END
