7KFO_IAC_A_201
     RDKit          3D

 13 14  0  0  0  0  0  0  0  0999 V2000
    3.9608   57.6632   39.9228 C   0  0  0  0  0  0  0  0  0  0  0  0
    3.5363   56.3613   40.1728 C   0  0  0  0  0  0  0  0  0  0  0  0
    4.4520   55.2934   40.0924 C   0  0  0  0  0  0  0  0  0  0  0  0
    5.7834   55.5666   39.7761 C   0  0  0  0  0  0  0  0  0  0  0  0
    6.1967   56.8853   39.5288 C   0  0  0  0  0  0  0  0  0  0  0  0
    5.2968   57.9313   39.6127 C   0  0  0  0  0  0  0  0  0  0  0  0
    2.1476   56.4711   40.4568 C   0  0  0  0  0  0  0  0  0  0  0  0
    1.8288   57.8060   40.3811 C   0  0  0  0  0  0  0  0  0  0  0  0
    1.1536   55.3515   40.7565 C   0  0  0  0  0  0  0  0  0  0  0  0
    1.6763   54.2575   41.6591 C   0  0  0  0  0  0  0  0  0  0  0  0
    2.9206   58.5034   40.0519 N   0  0  0  0  0  0  0  0  0  0  0  0
    2.0604   53.1851   41.1393 O   0  0  0  0  0  0  0  0  0  0  0  0
    1.7392   54.4467   42.8919 O   0  0  0  0  0  0  0  0  0  0  0  0
  1  2  1  0
  2  3  2  0
  3  4  1  0
  4  5  2  0
  1  6  2  0
  5  6  1  0
  2  7  1  0
  7  8  2  0
  7  9  1  0
  9 10  1  0
  1 11  1  0
  8 11  1  0
 10 12  1  0
 10 13  2  0
M  END
