7QE4_NGA_BBB_404
     RDKit          3D

 15 15  0  0  0  0  0  0  0  0999 V2000
   37.6926   16.4479  121.1563 C   0  0  2  0  0  0  0  0  0  0  0  0
   37.9408   14.9377  121.1266 C   0  0  1  0  0  0  0  0  0  0  0  0
   38.5169   14.5169  119.7756 C   0  0  2  0  0  0  0  0  0  0  0  0
   37.6287   15.0290  118.6562 C   0  0  2  0  0  0  0  0  0  0  0  0
   37.4958   16.5308  118.8324 C   0  0  1  0  0  0  0  0  0  0  0  0
   36.7122   17.1535  117.6908 C   0  0  0  0  0  0  0  0  0  0  0  0
   38.6676   13.4901  122.9633 C   0  0  0  0  0  0  0  0  0  0  0  0
   39.8607   13.1159  123.7943 C   0  0  0  0  0  0  0  0  0  0  0  0
   38.8592   14.5582  122.1821 N   0  0  0  0  0  0  0  0  0  0  0  0
   37.0848   16.8812  122.3784 O   0  0  0  0  0  0  0  0  0  0  0  0
   38.6063   13.0976  119.6633 O   0  0  0  0  0  0  0  0  0  0  0  0
   36.3665   14.3380  118.7300 O   0  0  0  0  0  0  0  0  0  0  0  0
   36.8450   16.8065  120.0706 O   0  0  0  0  0  0  0  0  0  0  0  0
   35.4767   16.4485  117.6235 O   0  0  0  0  0  0  0  0  0  0  0  0
   37.6168   12.8546  123.0137 O   0  0  0  0  0  0  0  0  0  0  0  0
  1  2  1  0
  2  3  1  0
  3  4  1  0
  4  5  1  0
  5  6  1  6
  7  8  1  0
  2  9  1  1
  7  9  1  0
  1 10  1  1
  3 11  1  1
  4 12  1  1
  1 13  1  0
  5 13  1  0
  6 14  1  0
  7 15  2  0
M  END
