1U1C_BAU_F_5051
     RDKit          3D

 20 21  0  0  0  0  0  0  0  0999 V2000
   12.4813  143.6678   95.2945 O   0  0  0  0  0  0  0  0  0  0  0  0
   11.5463  142.8364   94.6363 C   0  0  0  0  0  0  0  0  0  0  0  0
   11.5033  143.3014   93.2162 C   0  0  0  0  0  0  0  0  0  0  0  0
   10.4999  142.7418   92.4489 O   0  0  0  0  0  0  0  0  0  0  0  0
   10.7360  142.8024   91.0982 C   0  0  0  0  0  0  0  0  0  0  0  0
    9.7202  142.1379   90.3105 N   0  0  0  0  0  0  0  0  0  0  0  0
   10.1349  141.6130   89.1208 C   0  0  0  0  0  0  0  0  0  0  0  0
   11.3237  141.7147   88.7597 O   0  0  0  0  0  0  0  0  0  0  0  0
    9.2824  140.9773   88.3114 N   0  0  0  0  0  0  0  0  0  0  0  0
    7.9941  140.8671   88.7028 C   0  0  0  0  0  0  0  0  0  0  0  0
    7.2211  140.2635   87.9173 O   0  0  0  0  0  0  0  0  0  0  0  0
    8.4346  142.0293   90.7035 C   0  0  0  0  0  0  0  0  0  0  0  0
    7.5350  141.3787   89.8878 C   0  0  0  0  0  0  0  0  0  0  0  0
    6.1381  141.2620   90.3173 C   0  0  0  0  0  0  0  0  0  0  0  0
    6.0206  140.8329   91.7258 C   0  0  0  0  0  0  0  0  0  0  0  0
    6.1825  141.7152   92.7938 C   0  0  0  0  0  0  0  0  0  0  0  0
    6.0733  141.3165   94.1055 C   0  0  0  0  0  0  0  0  0  0  0  0
    5.7961  140.0120   94.4136 C   0  0  0  0  0  0  0  0  0  0  0  0
    5.6295  139.1099   93.3741 C   0  0  0  0  0  0  0  0  0  0  0  0
    5.7384  139.5076   92.0668 C   0  0  0  0  0  0  0  0  0  0  0  0
  1  2  1  0
  2  3  1  0
  3  4  1  0
  4  5  1  0
  5  6  1  0
  6  7  1  0
  7  8  2  0
  7  9  1  0
  9 10  1  0
 10 11  2  0
  6 12  1  0
 10 13  1  0
 12 13  2  0
 13 14  1  0
 14 15  1  0
 15 16  2  0
 16 17  1  0
 17 18  2  0
 18 19  1  0
 15 20  1  0
 19 20  2  0
M  END
$$$$
