1U1C_BAU_F_5051
     RDKit          3D

 20 21  0  0  0  0  0  0  0  0999 V2000
   17.7414  138.6420   44.8712 O   0  0  0  0  0  0  0  0  0  0  0  0
   16.4620  138.3433   45.3932 C   0  0  0  0  0  0  0  0  0  0  0  0
   15.7673  137.5273   44.3510 C   0  0  0  0  0  0  0  0  0  0  0  0
   14.5094  137.0780   44.7040 O   0  0  0  0  0  0  0  0  0  0  0  0
   14.5234  135.9567   45.4954 C   0  0  0  0  0  0  0  0  0  0  0  0
   13.2159  135.5987   46.0017 N   0  0  0  0  0  0  0  0  0  0  0  0
   13.2011  134.7573   47.0762 C   0  0  0  0  0  0  0  0  0  0  0  0
   14.2655  134.3379   47.5714 O   0  0  0  0  0  0  0  0  0  0  0  0
   12.0501  134.3599   47.6269 N   0  0  0  0  0  0  0  0  0  0  0  0
   10.8966  134.8144   47.0902 C   0  0  0  0  0  0  0  0  0  0  0  0
    9.8343  134.4204   47.6332 O   0  0  0  0  0  0  0  0  0  0  0  0
   12.0658  136.0539   45.4641 C   0  0  0  0  0  0  0  0  0  0  0  0
   10.8651  135.6597   46.0126 C   0  0  0  0  0  0  0  0  0  0  0  0
    9.6163  136.1559   45.4263 C   0  0  0  0  0  0  0  0  0  0  0  0
    9.3557  137.5666   45.7782 C   0  0  0  0  0  0  0  0  0  0  0  0
    8.5615  138.4006   44.9915 C   0  0  0  0  0  0  0  0  0  0  0  0
    8.3183  139.7142   45.3185 C   0  0  0  0  0  0  0  0  0  0  0  0
    8.8593  140.2589   46.4516 C   0  0  0  0  0  0  0  0  0  0  0  0
    9.6538  139.4556   47.2551 C   0  0  0  0  0  0  0  0  0  0  0  0
    9.8960  138.1464   46.9289 C   0  0  0  0  0  0  0  0  0  0  0  0
  1  2  1  0
  2  3  1  0
  3  4  1  0
  4  5  1  0
  5  6  1  0
  6  7  1  0
  7  8  2  0
  7  9  1  0
  9 10  1  0
 10 11  2  0
  6 12  1  0
 10 13  1  0
 12 13  2  0
 13 14  1  0
 14 15  1  0
 15 16  2  0
 16 17  1  0
 17 18  2  0
 18 19  1  0
 15 20  1  0
 19 20  2  0
M  END
$$$$
