1U1C_BAU_F_5051
     RDKit          3D

 20 21  0  0  0  0  0  0  0  0999 V2000
   -7.6774  123.5874   78.2156 O   0  0  0  0  0  0  0  0  0  0  0  0
   -6.6490  122.6740   78.5425 C   0  0  0  0  0  0  0  0  0  0  0  0
   -6.0282  122.2645   77.2457 C   0  0  0  0  0  0  0  0  0  0  0  0
   -5.3477  123.2671   76.5821 O   0  0  0  0  0  0  0  0  0  0  0  0
   -4.5805  122.8178   75.5365 C   0  0  0  0  0  0  0  0  0  0  0  0
   -3.9027  123.8815   74.8270 N   0  0  0  0  0  0  0  0  0  0  0  0
   -3.0706  123.4912   73.8180 C   0  0  0  0  0  0  0  0  0  0  0  0
   -2.9225  122.2837   73.5457 O   0  0  0  0  0  0  0  0  0  0  0  0
   -2.3930  124.3880   73.0952 N   0  0  0  0  0  0  0  0  0  0  0  0
   -2.5535  125.6966   73.3903 C   0  0  0  0  0  0  0  0  0  0  0  0
   -1.9013  126.5113   72.6906 O   0  0  0  0  0  0  0  0  0  0  0  0
   -4.0647  125.1872   75.1236 C   0  0  0  0  0  0  0  0  0  0  0  0
   -3.3778  126.1325   74.3939 C   0  0  0  0  0  0  0  0  0  0  0  0
   -3.5557  127.5511   74.7184 C   0  0  0  0  0  0  0  0  0  0  0  0
   -4.9773  127.9088   74.8997 C   0  0  0  0  0  0  0  0  0  0  0  0
   -5.5191  128.2165   76.1475 C   0  0  0  0  0  0  0  0  0  0  0  0
   -6.8427  128.5497   76.3173 C   0  0  0  0  0  0  0  0  0  0  0  0
   -7.6909  128.5914   75.2439 C   0  0  0  0  0  0  0  0  0  0  0  0
   -7.1828  128.2906   73.9896 C   0  0  0  0  0  0  0  0  0  0  0  0
   -5.8636  127.9586   73.8207 C   0  0  0  0  0  0  0  0  0  0  0  0
  1  2  1  0
  2  3  1  0
  3  4  1  0
  4  5  1  0
  5  6  1  0
  6  7  1  0
  7  8  2  0
  7  9  1  0
  9 10  1  0
 10 11  2  0
  6 12  1  0
 10 13  1  0
 12 13  2  0
 13 14  1  0
 14 15  1  0
 15 16  2  0
 16 17  1  0
 17 18  2  0
 18 19  1  0
 15 20  1  0
 19 20  2  0
M  END
$$$$
