1U1C_BAU_F_5051
     RDKit          3D

 20 21  0  0  0  0  0  0  0  0999 V2000
   -4.1565   96.8963   58.8765 O   0  0  0  0  0  0  0  0  0  0  0  0
   -5.5158   97.2841   58.9023 C   0  0  0  0  0  0  0  0  0  0  0  0
   -5.5374   98.7464   58.5924 C   0  0  0  0  0  0  0  0  0  0  0  0
   -6.7957   99.2844   58.4033 O   0  0  0  0  0  0  0  0  0  0  0  0
   -6.7845  100.6150   58.0665 C   0  0  0  0  0  0  0  0  0  0  0  0
   -8.1075  101.1619   57.8556 N   0  0  0  0  0  0  0  0  0  0  0  0
   -8.2635  102.4831   58.1603 C   0  0  0  0  0  0  0  0  0  0  0  0
   -7.3062  103.1543   58.5927 O   0  0  0  0  0  0  0  0  0  0  0  0
   -9.4421  103.0937   58.0048 N   0  0  0  0  0  0  0  0  0  0  0  0
  -10.4796  102.3663   57.5362 C   0  0  0  0  0  0  0  0  0  0  0  0
  -11.5719  102.9726   57.4026 O   0  0  0  0  0  0  0  0  0  0  0  0
   -9.1417  100.4335   57.3876 C   0  0  0  0  0  0  0  0  0  0  0  0
  -10.3677  101.0385   57.2179 C   0  0  0  0  0  0  0  0  0  0  0  0
  -11.4902  100.2445   56.7091 C   0  0  0  0  0  0  0  0  0  0  0  0
  -11.4120   98.8313   57.1319 C   0  0  0  0  0  0  0  0  0  0  0  0
  -10.5308   97.9221   56.5472 C   0  0  0  0  0  0  0  0  0  0  0  0
  -10.4574   96.6061   56.9403 C   0  0  0  0  0  0  0  0  0  0  0  0
  -11.2642   96.1345   57.9403 C   0  0  0  0  0  0  0  0  0  0  0  0
  -12.1514   97.0137   58.5419 C   0  0  0  0  0  0  0  0  0  0  0  0
  -12.2243   98.3253   58.1499 C   0  0  0  0  0  0  0  0  0  0  0  0
  1  2  1  0
  2  3  1  0
  3  4  1  0
  4  5  1  0
  5  6  1  0
  6  7  1  0
  7  8  2  0
  7  9  1  0
  9 10  1  0
 10 11  2  0
  6 12  1  0
 10 13  1  0
 12 13  2  0
 13 14  1  0
 14 15  1  0
 15 16  2  0
 16 17  1  0
 17 18  2  0
 18 19  1  0
 15 20  1  0
 19 20  2  0
M  END
$$$$
