1U1C_BAU_F_5051
     RDKit          3D

 20 21  0  0  0  0  0  0  0  0999 V2000
    1.1021  140.5666   90.6548 O   0  0  0  0  0  0  0  0  0  0  0  0
    1.2485  141.9550   90.4318 C   0  0  0  0  0  0  0  0  0  0  0  0
    1.7556  142.5314   91.7146 C   0  0  0  0  0  0  0  0  0  0  0  0
    2.7717  141.8137   92.3156 O   0  0  0  0  0  0  0  0  0  0  0  0
    3.6160  142.5812   93.0785 C   0  0  0  0  0  0  0  0  0  0  0  0
    4.5685  141.8000   93.8378 N   0  0  0  0  0  0  0  0  0  0  0  0
    5.6383  141.3191   93.1398 C   0  0  0  0  0  0  0  0  0  0  0  0
    5.7619  141.5544   91.9218 O   0  0  0  0  0  0  0  0  0  0  0  0
    6.5808  140.5851   93.7388 N   0  0  0  0  0  0  0  0  0  0  0  0
    6.4468  140.3302   95.0587 C   0  0  0  0  0  0  0  0  0  0  0  0
    7.3512  139.6373   95.5886 O   0  0  0  0  0  0  0  0  0  0  0  0
    4.4325  141.5469   95.1555 C   0  0  0  0  0  0  0  0  0  0  0  0
    5.3900  140.7926   95.7975 C   0  0  0  0  0  0  0  0  0  0  0  0
    5.2397  140.5190   97.2300 C   0  0  0  0  0  0  0  0  0  0  0  0
    5.6007  141.6846   98.0624 C   0  0  0  0  0  0  0  0  0  0  0  0
    5.3331  141.7401   99.4300 C   0  0  0  0  0  0  0  0  0  0  0  0
    5.6688  142.8249  100.2059 C   0  0  0  0  0  0  0  0  0  0  0  0
    6.2904  143.9101   99.6497 C   0  0  0  0  0  0  0  0  0  0  0  0
    6.5703  143.8858   98.2920 C   0  0  0  0  0  0  0  0  0  0  0  0
    6.2355  142.8043   97.5191 C   0  0  0  0  0  0  0  0  0  0  0  0
  1  2  1  0
  2  3  1  0
  3  4  1  0
  4  5  1  0
  5  6  1  0
  6  7  1  0
  7  8  2  0
  7  9  1  0
  9 10  1  0
 10 11  2  0
  6 12  1  0
 10 13  1  0
 12 13  2  0
 13 14  1  0
 14 15  1  0
 15 16  2  0
 16 17  1  0
 17 18  2  0
 18 19  1  0
 15 20  1  0
 19 20  2  0
M  END
$$$$
