1U1C_BAU_F_5051
     RDKit          3D

 20 21  0  0  0  0  0  0  0  0999 V2000
    6.2467  141.6210   95.4865 O   0  0  0  0  0  0  0  0  0  0  0  0
    5.9192  140.6023   94.5625 C   0  0  0  0  0  0  0  0  0  0  0  0
    5.8578  141.2606   93.2217 C   0  0  0  0  0  0  0  0  0  0  0  0
    6.9611  141.0503   92.4173 O   0  0  0  0  0  0  0  0  0  0  0  0
    6.7451  141.3410   91.0933 C   0  0  0  0  0  0  0  0  0  0  0  0
    7.9253  141.1761   90.2724 N   0  0  0  0  0  0  0  0  0  0  0  0
    7.7106  140.7335   88.9993 C   0  0  0  0  0  0  0  0  0  0  0  0
    6.5562  140.4936   88.5947 O   0  0  0  0  0  0  0  0  0  0  0  0
    8.7272  140.5451   88.1525 N   0  0  0  0  0  0  0  0  0  0  0  0
    9.9782  140.8051   88.5911 C   0  0  0  0  0  0  0  0  0  0  0  0
   10.9091  140.6169   87.7684 O   0  0  0  0  0  0  0  0  0  0  0  0
    9.1733  141.4365   90.7126 C   0  0  0  0  0  0  0  0  0  0  0  0
   10.2393  141.2506   89.8600 C   0  0  0  0  0  0  0  0  0  0  0  0
   11.5949  141.5343   90.3410 C   0  0  0  0  0  0  0  0  0  0  0  0
   11.5910  142.3303   91.5853 C   0  0  0  0  0  0  0  0  0  0  0  0
   12.5439  142.1563   92.5888 C   0  0  0  0  0  0  0  0  0  0  0  0
   12.5411  142.8970   93.7477 C   0  0  0  0  0  0  0  0  0  0  0  0
   11.5822  143.8504   93.9596 C   0  0  0  0  0  0  0  0  0  0  0  0
   10.6204  144.0476   92.9807 C   0  0  0  0  0  0  0  0  0  0  0  0
   10.6235  143.3092   91.8258 C   0  0  0  0  0  0  0  0  0  0  0  0
  1  2  1  0
  2  3  1  0
  3  4  1  0
  4  5  1  0
  5  6  1  0
  6  7  1  0
  7  8  2  0
  7  9  1  0
  9 10  1  0
 10 11  2  0
  6 12  1  0
 10 13  1  0
 12 13  2  0
 13 14  1  0
 14 15  1  0
 15 16  2  0
 16 17  1  0
 17 18  2  0
 18 19  1  0
 15 20  1  0
 19 20  2  0
M  END
$$$$
