1XOZ_CIA_A_501
     RDKit          3D

 29 34  0  0  0  0  0  0  0  0999 V2000
   40.2472   37.5787    9.1594 C   0  0  0  0  0  0  0  0  0  0  0  0
   40.5333   38.8013    9.8246 C   0  0  0  0  0  0  0  0  0  0  0  0
   40.8572   38.9125   11.1670 C   0  0  0  0  0  0  0  0  0  0  0  0
   40.8873   37.6885   11.8579 C   0  0  0  0  0  0  0  0  0  0  0  0
   41.1835   37.3738   13.2630 C   0  0  0  0  0  0  0  0  0  0  0  0
   41.0614   36.0254   13.3525 C   0  0  0  0  0  0  0  0  0  0  0  0
   40.7310   35.5030   12.1856 N   0  0  0  0  0  0  0  0  0  0  0  0
   40.6094   36.4689   11.2232 C   0  0  0  0  0  0  0  0  0  0  0  0
   40.2867   36.3640    9.8810 C   0  0  0  0  0  0  0  0  0  0  0  0
   41.2926   35.3350   14.6380 C   0  0  2  0  0  0  0  0  0  0  0  0
   41.3288   36.1922   15.8105 N   0  0  0  0  0  0  0  0  0  0  0  0
   41.4765   35.5478   16.9880 C   0  0  0  0  0  0  0  0  0  0  0  0
   41.5818   34.3522   17.0925 O   0  0  0  0  0  0  0  0  0  0  0  0
   41.5200   36.3284   18.2247 C   0  0  0  0  0  0  0  0  0  0  0  0
   41.7069   37.7757   18.1248 N   0  0  0  0  0  0  0  0  0  0  0  0
   41.5468   38.4206   16.9762 C   0  0  0  0  0  0  0  0  0  0  0  0
   41.6835   39.6457   16.8255 O   0  0  0  0  0  0  0  0  0  0  0  0
   41.1823   37.6504   15.7467 C   0  0  1  0  0  0  0  0  0  0  0  0
   41.5491   38.2864   14.3994 C   0  0  0  0  0  0  0  0  0  0  0  0
   42.0648   38.5446   19.3026 C   0  0  0  0  0  0  0  0  0  0  0  0
   42.6125   34.5215   14.4010 C   0  0  0  0  0  0  0  0  0  0  0  0
   42.6319   33.1042   14.5243 C   0  0  0  0  0  0  0  0  0  0  0  0
   43.7612   32.3405   14.3250 C   0  0  0  0  0  0  0  0  0  0  0  0
   44.9142   33.0147   13.9935 C   0  0  0  0  0  0  0  0  0  0  0  0
   46.1434   32.4740   13.7518 O   0  0  0  0  0  0  0  0  0  0  0  0
   46.9834   33.6232   13.7627 C   0  0  0  0  0  0  0  0  0  0  0  0
   46.1907   34.8247   13.5288 O   0  0  0  0  0  0  0  0  0  0  0  0
   44.9412   34.3678   13.8659 C   0  0  0  0  0  0  0  0  0  0  0  0
   43.8005   35.1490   14.0632 C   0  0  0  0  0  0  0  0  0  0  0  0
  1  2  2  0
  2  3  1  0
  3  4  2  0
  4  5  1  0
  5  6  2  0
  6  7  1  0
  4  8  1  0
  7  8  1  0
  1  9  1  0
  8  9  2  0
  6 10  1  0
 10 11  1  0
 11 12  1  0
 12 13  2  0
 12 14  1  0
 14 15  1  0
 15 16  1  0
 16 17  2  0
 11 18  1  0
 16 18  1  0
  5 19  1  0
 18 19  1  6
 15 20  1  0
 10 21  1  6
 21 22  2  0
 22 23  1  0
 23 24  2  0
 24 25  1  0
 25 26  1  0
 26 27  1  0
 24 28  1  0
 27 28  1  0
 21 29  1  0
 28 29  2  0
M  END
