7QE4_NGA_BBB_404
     RDKit          3D

 15 15  0  0  0  0  0  0  0  0999 V2000
   35.8363   34.0210  116.5920 C   0  0  2  0  0  0  0  0  0  0  0  0
   35.5223   35.0682  115.5842 C   0  0  1  0  0  0  0  0  0  0  0  0
   34.6396   36.1340  116.2118 C   0  0  2  0  0  0  0  0  0  0  0  0
   35.2161   36.5243  117.5434 C   0  0  2  0  0  0  0  0  0  0  0  0
   35.5015   35.3771  118.4574 C   0  0  1  0  0  0  0  0  0  0  0  0
   34.2878   34.8140  119.1421 C   0  0  0  0  0  0  0  0  0  0  0  0
   36.9361   35.6537  113.5725 C   0  0  0  0  0  0  0  0  0  0  0  0
   36.7186   34.4023  112.7974 C   0  0  0  0  0  0  0  0  0  0  0  0
   36.6438   35.6799  114.9615 N   0  0  0  0  0  0  0  0  0  0  0  0
   34.6794   33.2480  116.7255 O   0  0  0  0  0  0  0  0  0  0  0  0
   33.3225   35.7249  116.2665 O   0  0  0  0  0  0  0  0  0  0  0  0
   34.4669   37.5368  118.1227 O   0  0  0  0  0  0  0  0  0  0  0  0
   36.2839   34.4606  117.8082 O   0  0  0  0  0  0  0  0  0  0  0  0
   34.5925   34.3099  120.4142 O   0  0  0  0  0  0  0  0  0  0  0  0
   37.3776   36.6468  112.9445 O   0  0  0  0  0  0  0  0  0  0  0  0
  1  2  1  0
  2  3  1  0
  3  4  1  0
  4  5  1  0
  5  6  1  6
  7  8  1  0
  2  9  1  1
  7  9  1  0
  1 10  1  1
  3 11  1  1
  4 12  1  1
  1 13  1  0
  5 13  1  0
  6 14  1  0
  7 15  2  0
M  END
$$$$
