7A1P_QW2_A_505
     RDKit          3D

 25 24  0  0  0  0  0  0  0  0999 V2000
   21.0865  -23.9677    4.0650 C   0  0  0  0  0  0  0  0  0  0  0  0
   21.5184  -24.7287    2.8419 C   0  0  0  0  0  0  0  0  0  0  0  0
   20.2983  -25.3898    2.2003 C   0  0  0  0  0  0  0  0  0  0  0  0
   21.8567  -25.0399    8.6328 C   0  0  0  0  0  0  0  0  0  0  0  0
   19.6743  -25.9713    4.3303 C   0  0  0  0  0  0  0  0  0  0  0  0
   20.3765  -24.8369    5.1499 C   0  0  1  0  0  0  0  0  0  0  0  0
   21.3584  -25.3234    6.2228 C   0  0  0  0  0  0  0  0  0  0  0  0
   21.3977  -24.4185    7.4843 C   0  0  0  0  0  0  0  0  0  0  0  0
   21.0137  -23.2676    7.3721 O   0  0  0  0  0  0  0  0  0  0  0  0
   23.0697  -25.1071    8.8676 O   0  0  0  0  0  0  0  0  0  0  0  0
   21.0389  -25.5371    9.5402 O   0  0  0  0  0  0  0  0  0  0  0  0
   20.1126  -26.4607    3.3028 O   0  0  0  0  0  0  0  0  0  0  0  0
   18.5436  -26.4338    4.8626 O   0  0  0  0  0  0  0  0  0  0  0  0
   21.9545  -23.5246    4.5069 H   0  0  0  0  0  0  0  0  0  0  0  0
   20.3693  -23.2449    3.7365 H   0  0  0  0  0  0  0  0  0  0  0  0
   21.9690  -24.0554    2.1428 H   0  0  0  0  0  0  0  0  0  0  0  0
   22.2283  -25.4797    3.1194 H   0  0  0  0  0  0  0  0  0  0  0  0
   19.5894  -24.6376    1.9233 H   0  0  0  0  0  0  0  0  0  0  0  0
   20.6028  -25.9309    1.3289 H   0  0  0  0  0  0  0  0  0  0  0  0
   19.8487  -26.0635    2.8996 H   0  0  0  0  0  0  0  0  0  0  0  0
   19.6561  -24.2968    5.7279 H   0  0  0  0  0  0  0  0  0  0  0  0
   21.0709  -26.3096    6.5225 H   0  0  0  0  0  0  0  0  0  0  0  0
   22.3359  -25.2993    5.7883 H   0  0  0  0  0  0  0  0  0  0  0  0
   20.1124  -25.5071    9.4028 H   0  0  0  0  0  0  0  0  0  0  0  0
   18.2088  -26.0562    5.6521 H   0  0  0  0  0  0  0  0  0  0  0  0
  1  2  1  0
  2  3  1  0
  6  1  1  0
  5  6  1  0
  6  7  1  0
  7  8  1  0
  4  8  1  0
  8  9  2  0
  4 10  2  0
  4 11  1  0
  5 12  2  0
  5 13  1  0
  1 14  1  0
  1 15  1  0
  2 16  1  0
  2 17  1  0
  3 18  1  0
  3 19  1  0
  3 20  1  0
  6 21  1  6
  7 22  1  0
  7 23  1  0
 11 24  1  0
 13 25  1  0
M  END
