6X8D_ARA_A_207
     RDKit          3D

 10 10  0  0  0  0  0  0  0  0999 V2000
   50.5534   18.3601   52.6391 C   0  0  2  0  0  0  0  0  0  0  0  0
   51.6036   17.3565   53.0125 C   0  0  1  0  0  0  0  0  0  0  0  0
   51.1389   15.9407   52.9900 C   0  0  2  0  0  0  0  0  0  0  0  0
   49.6521   15.7631   53.0085 C   0  0  2  0  0  0  0  0  0  0  0  0
   48.8968   16.8254   52.2718 C   0  0  0  0  0  0  0  0  0  0  0  0
   49.8628   18.8808   53.7177 O   0  0  0  0  0  0  0  0  0  0  0  0
   52.6944   17.4819   52.1284 O   0  0  0  0  0  0  0  0  0  0  0  0
   51.6743   15.1915   54.0490 O   0  0  0  0  0  0  0  0  0  0  0  0
   49.2075   15.6667   54.3354 O   0  0  0  0  0  0  0  0  0  0  0  0
   49.7321   17.7662   51.6928 O   0  0  0  0  0  0  0  0  0  0  0  0
  1  2  1  0
  2  3  1  0
  3  4  1  0
  4  5  1  0
  1  6  1  1
  2  7  1  6
  3  8  1  1
  4  9  1  1
  1 10  1  0
  5 10  1  0
M  END
$$$$
