7OCB_V88_B_301
     RDKit          3D

 41 45  0  0  0  0  0  0  0  0999 V2000
   -8.1230  -43.5728   -9.6801 N   0  0  0  0  0  0  0  0  0  0  0  0
   -5.7020  -36.5384   -8.2956 N   0  0  0  0  0  0  0  0  0  0  0  0
   -8.3822  -38.9185   -7.5579 C   0  0  0  0  0  0  0  0  0  0  0  0
   -7.5522  -41.1719   -8.1798 C   0  0  2  0  0  0  0  0  0  0  0  0
   -7.7194  -42.5514   -7.5854 C   0  0  0  0  0  0  0  0  0  0  0  0
   -8.7774  -43.2319   -8.4665 C   0  0  0  0  0  0  0  0  0  0  0  0
   -8.7792  -44.5161  -10.5191 C   0  0  2  0  0  0  0  0  0  0  0  0
   -8.9168  -45.8910   -9.9377 C   0  0  0  0  0  0  0  0  0  0  0  0
   -6.9490  -37.1251   -7.8778 C   0  0  0  0  0  0  0  0  0  0  0  0
   -3.8430  -37.9847   -7.8589 C   0  0  0  0  0  0  0  0  0  0  0  0
   -3.4043  -39.8451   -9.2067 C   0  0  0  0  0  0  0  0  0  0  0  0
  -11.2251  -36.2266   -6.0179 C   0  0  0  0  0  0  0  0  0  0  0  0
  -12.3099  -34.1617   -5.0916 C   0  0  0  0  0  0  0  0  0  0  0  0
  -13.7048  -33.8270   -4.6585 C   0  0  0  0  0  0  0  0  0  0  0  0
  -14.3694  -36.6544   -3.2505 C   0  0  0  0  0  0  0  0  0  0  0  0
  -15.0127  -38.9003   -2.0736 C   0  0  0  0  0  0  0  0  0  0  0  0
  -16.2328  -38.6282   -0.0031 C   0  0  0  0  0  0  0  0  0  0  0  0
   -8.6185  -40.3278   -7.6612 N   0  0  0  0  0  0  0  0  0  0  0  0
  -12.9495  -39.4846   -5.7629 C   0  0  0  0  0  0  0  0  0  0  0  0
  -12.7198  -38.0972   -5.6902 O   0  0  0  0  0  0  0  0  0  0  0  0
  -11.4758  -37.6091   -6.1187 C   0  0  0  0  0  0  0  0  0  0  0  0
   -7.4051  -42.5262  -10.3080 C   0  0  0  0  0  0  0  0  0  0  0  0
   -7.7499  -41.1991   -9.6838 C   0  0  0  0  0  0  0  0  0  0  0  0
   -4.6799  -37.3494   -8.9469 C   0  0  0  0  0  0  0  0  0  0  0  0
   -3.1565  -39.9901   -6.8330 C   0  0  0  0  0  0  0  0  0  0  0  0
   -9.0401  -36.7067   -6.9660 C   0  0  0  0  0  0  0  0  0  0  0  0
   -9.9859  -35.8273   -6.4583 C   0  0  0  0  0  0  0  0  0  0  0  0
  -10.5415  -38.4796   -6.6207 C   0  0  0  0  0  0  0  0  0  0  0  0
  -14.0441  -34.2287   -3.2671 C   0  0  0  0  0  0  0  0  0  0  0  0
  -14.9789  -37.5162   -2.1755 C   0  0  0  0  0  0  0  0  0  0  0  0
  -15.6553  -39.4455   -0.9611 C   0  0  0  0  0  0  0  0  0  0  0  0
  -16.1638  -37.2404   -0.1652 C   0  0  0  0  0  0  0  0  0  0  0  0
   -9.3120  -38.0494   -7.0521 C   0  0  0  0  0  0  0  0  0  0  0  0
  -15.5381  -36.6918   -1.2484 C   0  0  0  0  0  0  0  0  0  0  0  0
  -15.3235  -35.2825   -1.6563 C   0  0  0  0  0  0  0  0  0  0  0  0
   -8.0439  -44.6010  -11.8466 C   0  0  0  0  0  0  0  0  0  0  0  0
   -7.1895  -38.4394   -7.9726 N   0  0  0  0  0  0  0  0  0  0  0  0
   -3.9562  -39.4364   -7.9054 N   0  0  0  0  0  0  0  0  0  0  0  0
   -7.8544  -36.2532   -7.3817 N   0  0  0  0  0  0  0  0  0  0  0  0
  -14.8700  -35.3495   -3.0531 N   0  0  0  0  0  0  0  0  0  0  0  0
  -12.2069  -35.4634   -5.5098 O   0  0  0  0  0  0  0  0  0  0  0  0
  4  5  1  0
  6  1  1  1
  5  6  1  6
  7  1  1  1
  8  7  1  6
  2  9  1  0
 14 13  1  6
  4 18  1  1
  3 18  1  0
 19 20  1  1
 12 21  1  0
 20 21  1  0
 22  1  1  1
  4 23  1  0
 23 22  1  1
 10 24  1  0
 24  2  1  6
 26 27  1  0
 12 27  2  0
 21 28  2  0
 14 29  1  0
 15 30  1  0
 16 30  2  0
 17 31  2  0
 16 31  1  0
 17 32  1  0
  3 33  2  0
 26 33  1  0
 28 33  1  0
 32 34  2  0
 30 34  1  0
 34 35  1  0
 36  7  1  6
  9 37  2  0
  3 37  1  0
 25 38  1  6
 11 38  1  6
 10 38  1  1
  9 39  1  0
 26 39  2  0
 35 40  1  1
 29 40  1  1
 15 40  1  1
 12 41  1  0
 13 41  1  1
M  END
$$$$
