7FT9_4MB_C_301
     RDKit          3D

 14 14  0  0  0  0  0  0  0  0999 V2000
    1.7233  -29.7459   -8.6709 C   0  0  0  0  0  0  0  0  0  0  0  0
    4.0201  -30.2724   -9.1776 C   0  0  0  0  0  0  0  0  0  0  0  0
    0.7138  -30.5180   -6.5795 N   0  0  0  0  0  0  0  0  0  0  0  0
    1.8288  -30.4299   -7.4655 C   0  0  0  0  0  0  0  0  0  0  0  0
    2.8109  -29.6624   -9.5305 C   0  0  0  0  0  0  0  0  0  0  0  0
    5.1917  -30.2143  -10.0443 C   0  0  0  0  0  0  0  0  0  0  0  0
    4.1401  -30.9553   -7.9836 C   0  0  0  0  0  0  0  0  0  0  0  0
   -0.7009  -30.5295   -4.0737 C   0  0  0  0  0  0  0  0  0  0  0  0
    3.0389  -31.0292   -7.1329 C   0  0  0  0  0  0  0  0  0  0  0  0
    6.2814  -30.8053   -9.7513 O   0  0  0  0  0  0  0  0  0  0  0  0
    5.1494  -29.4945  -11.2432 O   0  0  0  0  0  0  0  0  0  0  0  0
    0.9027  -30.5877   -4.8734 S   0  0  1  0  0  0  0  0  0  0  0  0
    1.6143  -31.8528   -4.5175 O   0  0  0  0  0  0  0  0  0  0  0  0
    1.7042  -29.4042   -4.4000 O   0  0  0  0  0  0  0  0  0  0  0  0
  1  4  2  0
  3  4  1  0
  1  5  1  0
  2  5  2  0
  2  6  1  0
  2  7  1  0
  4  9  1  0
  7  9  2  0
  6 10  2  0
  6 11  1  0
  3 12  1  0
 12  8  1  1
 12 13  2  0
 12 14  2  0
M  END
$$$$
