7RPZ_6IC_A_202
     RDKit          3D

 75 82  0  0  0  0  0  0  0  0999 V2000
    5.3643   -7.1981    1.7903 C   0  0  0  0  0  0  0  0  0  0  0  0
    6.2325   -6.1608    1.4731 C   0  0  0  0  0  0  0  0  0  0  0  0
    4.0140   -6.9416    2.0071 C   0  0  0  0  0  0  0  0  0  0  0  0
    4.3667   -4.5629    1.5035 C   0  0  0  0  0  0  0  0  0  0  0  0
    3.5019   -5.6381    1.8874 C   0  0  0  0  0  0  0  0  0  0  0  0
    5.7552   -4.8501    1.3372 C   0  0  0  0  0  0  0  0  0  0  0  0
    6.2297   -2.5094    0.8967 C   0  0  0  0  0  0  0  0  0  0  0  0
   -3.8971   -3.7676   -1.7799 C   0  0  0  0  0  0  0  0  0  0  0  0
   -3.7463   -2.0335    0.0592 C   0  0  0  0  0  0  0  0  0  0  0  0
    6.6657   -3.8252    1.0417 C   0  0  0  0  0  0  0  0  0  0  0  0
   -0.1722   -2.0936    1.1574 C   0  0  0  0  0  0  0  0  0  0  0  0
    0.7864   -1.1562    1.5866 C   0  0  0  0  0  0  0  0  0  0  0  0
   -0.9206    0.4371    1.9767 C   0  0  0  0  0  0  0  0  0  0  0  0
   -1.5225   -1.6990    1.1424 C   0  0  0  0  0  0  0  0  0  0  0  0
    0.2573   -3.3747    0.7754 C   0  0  0  0  0  0  0  0  0  0  0  0
    2.5184   -2.8061    1.2600 C   0  0  0  0  0  0  0  0  0  0  0  0
    2.1376   -1.5081    1.6301 C   0  0  0  0  0  0  0  0  0  0  0  0
    3.9340   -3.2146    1.2949 C   0  0  0  0  0  0  0  0  0  0  0  0
   -1.8376    2.7197    1.5694 C   0  0  0  0  0  0  0  0  0  0  0  0
   -2.4331   -4.0243    1.0729 C   0  0  0  0  0  0  0  0  0  0  0  0
   -3.4674   -4.8839    0.3098 C   0  0  2  0  0  0  0  0  0  0  0  0
   -4.6134   -3.1425   -0.5794 C   0  0  2  0  0  0  0  0  0  0  0  0
   -3.1281   -4.9406   -1.1819 C   0  0  0  0  0  0  0  0  0  0  0  0
    4.8760   -2.2115    1.0175 C   0  0  0  0  0  0  0  0  0  0  0  0
   -1.2011    4.1031    1.8679 C   0  0  1  0  0  0  0  0  0  0  0  0
   -0.5466    4.6728    0.5892 C   0  0  0  0  0  0  0  0  0  0  0  0
    0.7971    5.1972    1.0417 C   0  0  2  0  0  0  0  0  0  0  0  0
    1.1320    4.3402    2.2463 C   0  0  0  0  0  0  0  0  0  0  0  0
   -0.4858    4.8051    4.0255 C   0  0  0  0  0  0  0  0  0  0  0  0
   -1.9682    5.0970    3.9353 C   0  0  0  0  0  0  0  0  0  0  0  0
   -2.2490    5.0760    2.4523 C   0  0  0  0  0  0  0  0  0  0  0  0
    2.1139   -5.4567    2.2520 C   0  0  0  0  0  0  0  0  0  0  0  0
    0.9568   -5.3268    2.5698 C   0  0  0  0  0  0  0  0  0  0  0  0
    3.0643   -0.6109    2.0562 F   0  0  0  0  0  0  0  0  0  0  0  0
    0.6860    6.5251    1.4213 F   0  0  0  0  0  0  0  0  0  0  0  0
    3.2015   -7.9729    2.3583 F   0  0  0  0  0  0  0  0  0  0  0  0
    0.3919    0.0813    1.9779 N   0  0  0  0  0  0  0  0  0  0  0  0
   -1.8592   -0.4481    1.5538 N   0  0  0  0  0  0  0  0  0  0  0  0
    1.5772   -3.6942    0.8359 N   0  0  0  0  0  0  0  0  0  0  0  0
   -2.5585   -2.5957    0.7287 N   0  0  0  0  0  0  0  0  0  0  0  0
   -4.7748   -4.2385    0.3707 N   0  0  0  0  0  0  0  0  0  0  0  0
   -0.1371    3.9497    2.8774 N   0  0  0  0  0  0  0  0  0  0  0  0
   -1.3221    1.6990    2.4268 O   0  0  0  0  0  0  0  0  0  0  0  0
    7.1355   -1.4877    0.6190 O   0  0  0  0  0  0  0  0  0  0  0  0
    5.7462   -8.2063    1.8915 H   0  0  0  0  0  0  0  0  0  0  0  0
    7.2842   -6.3840    1.3347 H   0  0  0  0  0  0  0  0  0  0  0  0
   -4.6457   -4.1401   -2.5138 H   0  0  0  0  0  0  0  0  0  0  0  0
   -3.2158   -3.0541   -2.2939 H   0  0  0  0  0  0  0  0  0  0  0  0
   -4.3553   -1.4825    0.8072 H   0  0  0  0  0  0  0  0  0  0  0  0
   -3.4347   -1.3029   -0.7191 H   0  0  0  0  0  0  0  0  0  0  0  0
    7.7212   -4.0462    0.9284 H   0  0  0  0  0  0  0  0  0  0  0  0
   -0.4460   -4.1243    0.4389 H   0  0  0  0  0  0  0  0  0  0  0  0
   -1.6824    2.4350    0.5052 H   0  0  0  0  0  0  0  0  0  0  0  0
   -2.9349    2.7849    1.7327 H   0  0  0  0  0  0  0  0  0  0  0  0
   -1.4049   -4.3812    0.8449 H   0  0  0  0  0  0  0  0  0  0  0  0
   -2.5913   -4.1491    2.1652 H   0  0  0  0  0  0  0  0  0  0  0  0
   -3.5159   -5.9057    0.7441 H   0  0  0  0  0  0  0  0  0  0  0  0
   -5.6036   -2.7344   -0.8772 H   0  0  0  0  0  0  0  0  0  0  0  0
   -2.0373   -4.8565   -1.3795 H   0  0  0  0  0  0  0  0  0  0  0  0
   -3.4962   -5.8956   -1.6167 H   0  0  0  0  0  0  0  0  0  0  0  0
    4.5514   -1.1882    0.8670 H   0  0  0  0  0  0  0  0  0  0  0  0
   -1.1508    5.4655    0.0958 H   0  0  0  0  0  0  0  0  0  0  0  0
   -0.3712    3.8730   -0.1654 H   0  0  0  0  0  0  0  0  0  0  0  0
    1.5665    5.1012    0.2452 H   0  0  0  0  0  0  0  0  0  0  0  0
    1.6453    3.4159    1.9009 H   0  0  0  0  0  0  0  0  0  0  0  0
    1.8274    4.8597    2.9435 H   0  0  0  0  0  0  0  0  0  0  0  0
    0.0628    5.7758    4.0130 H   0  0  0  0  0  0  0  0  0  0  0  0
   -0.2526    4.2740    4.9731 H   0  0  0  0  0  0  0  0  0  0  0  0
   -2.2212    6.0801    4.3887 H   0  0  0  0  0  0  0  0  0  0  0  0
   -2.5461    4.2948    4.4446 H   0  0  0  0  0  0  0  0  0  0  0  0
   -2.1115    6.1088    2.0610 H   0  0  0  0  0  0  0  0  0  0  0  0
   -3.2971    4.7646    2.2471 H   0  0  0  0  0  0  0  0  0  0  0  0
   -0.0577   -5.2079    2.8473 H   0  0  0  0  0  0  0  0  0  0  0  0
   -4.9802   -3.8829    1.3355 H   0  0  0  0  0  0  0  0  0  0  0  0
    8.1274   -1.6700    0.5209 H   0  0  0  0  0  0  0  0  0  0  0  0
  1  2  4  0
  1  3  4  0
  4  5  4  0
  3  5  4  0
  4  6  4  0
  2  6  4  0
  7 10  4  0
  6 10  4  0
 11 12  4  0
 11 14  4  0
 11 15  4  0
 16 17  4  0
 12 17  4  0
 16 18  1  0
  4 18  4  0
 21 20  1  0
 22  9  1  0
  8 22  1  0
 21 23  1  0
  8 23  1  0
  7 24  4  0
 18 24  4  0
 25 19  1  6
 25 26  1  0
 26 27  1  0
 27 28  1  0
 29 30  1  0
 30 31  1  0
 25 31  1  0
  5 32  1  0
 32 33  3  0
 17 34  1  0
 27 35  1  0
  3 36  1  0
 12 37  4  0
 13 37  4  0
 14 38  4  0
 13 38  4  0
 15 39  4  0
 16 39  4  0
  9 40  1  0
 14 40  1  0
 20 40  1  0
 22 41  1  0
 21 41  1  0
 29 42  1  0
 28 42  1  0
 25 42  1  0
 13 43  1  0
 19 43  1  0
  7 44  1  0
  1 45  1  0
  2 46  1  0
  8 47  1  0
  8 48  1  0
  9 49  1  0
  9 50  1  0
 10 51  1  0
 15 52  1  0
 19 53  1  0
 19 54  1  0
 20 55  1  0
 20 56  1  0
 21 57  1  1
 22 58  1  6
 23 59  1  0
 23 60  1  0
 24 61  1  0
 26 62  1  0
 26 63  1  0
 27 64  1  6
 28 65  1  0
 28 66  1  0
 29 67  1  0
 29 68  1  0
 30 69  1  0
 30 70  1  0
 31 71  1  0
 31 72  1  0
 33 73  1  0
 41 74  1  0
 44 75  1  0
M  END
