
     RDKit          3D

 27 30  0  0  0  0  0  0  0  0999 V2000
    3.6040  -23.7849   42.6260 C   0  0  0  0  0  0  0  0  0  0  0  0
    4.7790  -21.5723   41.2192 C   0  0  0  0  0  0  0  0  0  0  0  0
    3.3688  -21.9349   40.9976 C   0  0  0  0  0  0  0  0  0  0  0  0
    2.3625  -26.8960   43.8174 C   0  0  0  0  0  0  0  0  0  0  0  0
    6.9957  -23.1497   44.0196 O   0  0  0  0  0  0  0  0  0  0  0  0
    5.4146  -18.2658   47.2466 C   0  0  0  0  0  0  0  0  0  0  0  0
    5.7121  -18.8213   48.4826 C   0  0  0  0  0  0  0  0  0  0  0  0
    6.0899  -20.3084   46.1476 C   0  0  0  0  0  0  0  0  0  0  0  0
    6.7611  -22.3769   45.1271 C   0  0  0  0  0  0  0  0  0  0  0  0
    5.5987  -18.9932   46.0780 C   0  0  0  0  0  0  0  0  0  0  0  0
    6.5454  -25.3312   43.1560 C   0  0  0  0  0  0  0  0  0  0  0  0
    5.9113  -24.0889   43.7827 C   0  0  2  0  0  0  0  0  0  0  0  0
    4.9119  -23.4415   42.8118 C   0  0  0  0  0  0  0  0  0  0  0  0
    2.8394  -22.9690   41.6642 C   0  0  0  0  0  0  0  0  0  0  0  0
    5.4458  -22.3649   42.1084 N   0  0  0  0  0  0  0  0  0  0  0  0
    5.2936  -20.6236   40.6394 O   0  0  0  0  0  0  0  0  0  0  0  0
    2.9711  -24.8862   43.2887 N   0  0  0  0  0  0  0  0  0  0  0  0
    2.0882  -24.8054   44.3718 C   0  0  0  0  0  0  0  0  0  0  0  0
    1.6953  -26.0726   44.7222 C   0  0  0  0  0  0  0  0  0  0  0  0
    3.1197  -26.2098   42.9655 N   0  0  0  0  0  0  0  0  0  0  0  0
    6.2866  -21.0781   44.9970 C   0  0  0  0  0  0  0  0  0  0  0  0
    6.2057  -20.1274   48.5453 C   0  0  0  0  0  0  0  0  0  0  0  0
    6.4036  -20.8904   47.3996 C   0  0  0  0  0  0  0  0  0  0  0  0
    6.8873  -22.1397   47.5178 N   0  0  0  0  0  0  0  0  0  0  0  0
    7.0733  -22.8625   46.3977 C   0  0  0  0  0  0  0  0  0  0  0  0
    7.5503  -24.1646   46.5724 N   0  0  0  0  0  0  0  0  0  0  0  0
    4.9493  -17.0118   47.1768 F   0  0  0  0  0  0  0  0  0  0  0  0
  2  3  4  0
  6  7  4  0
  5  9  1  0
  8 10  4  0
  6 10  4  0
 12 11  1  6
  5 12  1  0
  1 13  4  0
 12 13  1  0
  1 14  4  0
  3 14  4  0
 13 15  4  0
  2 15  4  0
  2 16  2  0
  1 17  1  0
 17 18  4  0
 18 19  4  0
  4 19  4  0
  4 20  4  0
 17 20  4  0
  9 21  4  0
  8 21  4  0
  7 22  4  0
  8 23  4  0
 22 23  4  0
 23 24  4  0
  9 25  4  0
 24 25  4  0
 25 26  1  0
  6 27  1  0
M  END
