7X5N_5M5_A_501
     RDKit          3D

 54 57  0  0  0  0  0  0  0  0999 V2000
   76.6101   65.5997   57.0464 C   0  0  1  0  0  0  0  0  0  0  0  0
   76.9626   64.5043   56.0762 C   0  0  0  0  0  0  0  0  0  0  0  0
   76.9837   63.1684   56.4994 C   0  0  0  0  0  0  0  0  0  0  0  0
   77.7996   65.5488   51.7873 C   0  0  1  0  0  0  0  0  0  0  0  0
   76.5065   66.2767   52.2109 C   0  0  2  0  0  0  0  0  0  0  0  0
   79.0465   66.4459   51.9654 C   0  0  1  0  0  0  0  0  0  0  0  0
   77.2979   64.8197   54.7518 C   0  0  0  0  0  0  0  0  0  0  0  0
   77.2946   62.1395   55.6007 C   0  0  0  0  0  0  0  0  0  0  0  0
   77.3021   60.7267   56.0479 C   0  0  0  0  0  0  0  0  0  0  0  0
   76.1718   59.9112   55.8519 C   0  0  0  0  0  0  0  0  0  0  0  0
   76.1811   58.5796   56.2741 C   0  0  0  0  0  0  0  0  0  0  0  0
   77.3146   58.0474   56.8918 C   0  0  0  0  0  0  0  0  0  0  0  0
   78.4439   58.8466   57.0874 C   0  0  0  0  0  0  0  0  0  0  0  0
   78.4387   60.1803   56.6722 C   0  0  0  0  0  0  0  0  0  0  0  0
   77.5972   62.4668   54.2700 C   0  0  0  0  0  0  0  0  0  0  0  0
   77.5975   63.8060   53.8156 C   0  0  0  0  0  0  0  0  0  0  0  0
   77.9476   64.0666   52.3316 C   0  0  1  0  0  0  0  0  0  0  0  0
   77.0488   63.1808   51.4688 C   0  0  0  0  0  0  0  0  0  0  0  0
   75.6824   62.8856   51.4493 C   0  0  0  0  0  0  0  0  0  0  0  0
   74.6148   63.3335   52.3994 C   0  0  1  0  0  0  0  0  0  0  0  0
   77.5287   62.5228   50.3764 C   0  0  0  0  0  0  0  0  0  0  0  0
   79.8197   62.9499   50.9894 C   0  0  0  0  0  0  0  0  0  0  0  0
   79.4230   63.6295   52.1059 C   0  0  0  0  0  0  0  0  0  0  0  0
   80.4140   64.0219   53.0939 C   0  0  0  0  0  0  0  0  0  0  0  0
   75.4112   62.1112   50.3724 N   0  0  0  0  0  0  0  0  0  0  0  0
   76.5440   61.8958   49.7214 N   0  0  0  0  0  0  0  0  0  0  0  0
   81.1996   62.6655   50.7311 N   0  0  0  0  0  0  0  0  0  0  0  0
   81.1989   64.3481   53.8801 N   0  0  0  0  0  0  0  0  0  0  0  0
   77.7310   65.9487   57.8115 O   0  0  0  0  0  0  0  0  0  0  0  0
   78.8780   62.4725   50.0680 O   0  0  0  0  0  0  0  0  0  0  0  0
   76.2637   66.4964   56.4912 H   0  0  0  0  0  0  0  0  0  0  0  0
   75.7693   65.2910   57.7080 H   0  0  0  0  0  0  0  0  0  0  0  0
   76.7312   62.9323   57.5251 H   0  0  0  0  0  0  0  0  0  0  0  0
   77.7042   65.4570   50.6826 H   0  0  0  0  0  0  0  0  0  0  0  0
   76.5295   66.6272   53.2544 H   0  0  0  0  0  0  0  0  0  0  0  0
   75.6353   65.5917   52.1074 H   0  0  0  0  0  0  0  0  0  0  0  0
   76.3066   67.1528   51.5608 H   0  0  0  0  0  0  0  0  0  0  0  0
   79.3156   66.6137   53.0229 H   0  0  0  0  0  0  0  0  0  0  0  0
   79.9245   65.9804   51.4667 H   0  0  0  0  0  0  0  0  0  0  0  0
   78.9028   67.4314   51.4777 H   0  0  0  0  0  0  0  0  0  0  0  0
   77.2876   65.8600   54.4768 H   0  0  0  0  0  0  0  0  0  0  0  0
   75.2768   60.3085   55.3891 H   0  0  0  0  0  0  0  0  0  0  0  0
   75.3080   57.9591   56.1214 H   0  0  0  0  0  0  0  0  0  0  0  0
   77.3217   57.0158   57.2153 H   0  0  0  0  0  0  0  0  0  0  0  0
   79.3249   58.4319   57.5599 H   0  0  0  0  0  0  0  0  0  0  0  0
   79.3298   60.7779   56.8198 H   0  0  0  0  0  0  0  0  0  0  0  0
   77.8522   61.6730   53.5778 H   0  0  0  0  0  0  0  0  0  0  0  0
   74.1014   64.2259   51.9886 H   0  0  0  0  0  0  0  0  0  0  0  0
   73.8685   62.5237   52.5200 H   0  0  0  0  0  0  0  0  0  0  0  0
   75.0204   63.5720   53.3965 H   0  0  0  0  0  0  0  0  0  0  0  0
   76.6321   61.3182   48.8572 H   0  0  0  0  0  0  0  0  0  0  0  0
   81.9767   63.0549   51.3087 H   0  0  0  0  0  0  0  0  0  0  0  0
   81.4533   62.0478   49.9299 H   0  0  0  0  0  0  0  0  0  0  0  0
   77.3872   66.3568   58.6473 H   0  0  0  0  0  0  0  0  0  0  0  0
  1  2  1  0
  2  3  2  0
  4  5  1  0
  4  6  1  0
  2  7  1  0
  3  8  1  0
  8  9  1  0
  9 10  2  0
 10 11  1  0
 11 12  2  0
 12 13  1  0
  9 14  1  0
 13 14  2  0
  8 15  2  0
 15 16  1  0
  7 16  2  0
 17  4  1  0
 17 16  1  1
 17 18  1  0
 18 19  1  0
 19 20  1  0
 18 21  2  0
 22 23  2  0
 17 23  1  0
 23 24  1  0
 19 25  2  0
 21 26  1  0
 25 26  1  0
 22 27  1  0
 24 28  3  0
  1 29  1  0
 22 30  1  0
 21 30  1  0
  1 31  1  6
  1 32  1  0
  3 33  1  0
  4 34  1  6
  5 35  1  1
  5 36  1  0
  5 37  1  0
  6 38  1  1
  6 39  1  0
  6 40  1  0
  7 41  1  0
 10 42  1  0
 11 43  1  0
 12 44  1  0
 13 45  1  0
 14 46  1  0
 15 47  1  0
 20 48  1  6
 20 49  1  0
 20 50  1  0
 26 51  1  0
 27 52  1  0
 27 53  1  0
 29 54  1  0
M  END
