7UP3_NZ0_B_305
     RDKit          3D

 23 25  0  0  0  0  0  0  0  0999 V2000
   -5.5211    3.1791  -14.3025 C   0  0  0  0  0  0  0  0  0  0  0  0
   -6.8195    2.7548  -14.5026 C   0  0  0  0  0  0  0  0  0  0  0  0
   -7.1523    1.8968  -15.6329 C   0  0  0  0  0  0  0  0  0  0  0  0
   -7.8132    2.3901  -16.7272 C   0  0  0  0  0  0  0  0  0  0  0  0
   -7.7782    3.1707  -13.5987 C   0  0  0  0  0  0  0  0  0  0  0  0
   -6.7795    0.5697  -15.5618 C   0  0  0  0  0  0  0  0  0  0  0  0
   -6.7933    5.0253  -10.1223 O   0  0  0  0  0  0  0  0  0  0  0  0
   -8.8954    1.0500  -20.2975 O   0  0  0  0  0  0  0  0  0  0  0  0
   -8.0108    5.8809  -17.1669 N   0  0  0  0  0  0  0  0  0  0  0  0
   -5.8903    5.2797  -11.1567 C   0  0  0  0  0  0  0  0  0  0  0  0
   -9.2587    5.6506  -16.8416 N   0  0  0  0  0  0  0  0  0  0  0  0
   -9.4107    4.3612  -16.6265 N   0  0  0  0  0  0  0  0  0  0  0  0
   -8.1021    1.5188  -17.7713 C   0  0  0  0  0  0  0  0  0  0  0  0
   -8.9348    2.0647  -19.1882 S   0  0  1  0  0  6  0  0  0  0  0  0
   -8.2810    3.3132  -19.7095 O   0  0  0  0  0  0  0  0  0  0  0  0
  -10.5939    2.3858  -18.7549 N   0  0  0  0  0  0  0  0  0  0  0  0
   -8.2158    3.7857  -16.8272 C   0  0  0  0  0  0  0  0  0  0  0  0
   -7.3236    4.7570  -17.1720 N   0  0  0  0  0  0  0  0  0  0  0  0
   -7.7318    0.2369  -17.6816 N   0  0  0  0  0  0  0  0  0  0  0  0
   -7.0752   -0.2633  -16.5999 C   0  0  0  0  0  0  0  0  0  0  0  0
   -7.4750    3.9886  -12.5153 C   0  0  0  0  0  0  0  0  0  0  0  0
   -6.1581    4.4160  -12.3167 C   0  0  0  0  0  0  0  0  0  0  0  0
   -5.2229    3.9977  -13.2165 C   0  0  0  0  0  0  0  0  0  0  0  0
  1  2  2  0
  2  3  1  0
  3  4  1  0
  2  5  1  0
  3  6  2  0
 10  7  1  6
  9 11  1  0
 11 12  2  0
  4 13  2  0
  8 14  2  0
 13 14  1  0
 14 15  2  0
 14 16  1  1
  4 17  1  0
 12 17  1  0
 17 18  2  0
  9 18  1  0
 13 19  1  0
 19 20  2  0
  6 20  1  0
  5 21  2  0
 21 22  1  0
 10 22  1  0
  1 23  1  0
 22 23  2  0
M  END
$$$$
