7N7B_T3F_A_302
     RDKit          3D

 62 64  0  0  0  0  0  0  0  0999 V2000
    2.8793   -2.0217   13.2647 O   0  0  0  0  0  0  0  0  0  0  0  0
    2.4879   -0.6937   12.2863 P   0  0  2  0  0  5  0  0  0  0  0  0
    1.3337   -1.0703   11.3825 O   0  0  0  0  0  0  0  0  0  0  0  0
    3.8603   -0.2381   11.3719 O   0  0  0  0  0  0  0  0  0  0  0  0
    4.3857   -1.3639   10.6930 C   0  0  1  0  0  0  0  0  0  0  0  0
    5.3535   -0.9789    9.7235 O   0  0  0  0  0  0  0  0  0  0  0  0
    6.4314   -0.2738   10.3213 C   0  0  2  0  0  0  0  0  0  0  0  0
    7.3381    0.2667    9.2129 C   0  0  0  0  0  0  0  0  0  0  0  0
    4.9988   -2.3454   11.7127 C   0  0  2  0  0  0  0  0  0  0  0  0
    4.0303   -2.6671   12.6793 O   0  0  0  0  0  0  0  0  0  0  0  0
    6.2408   -1.7138   12.3808 C   0  0  1  0  0  0  0  0  0  0  0  0
    6.9224   -2.6907   13.2365 N   0  0  0  0  0  0  0  0  0  0  0  0
    7.2052   -1.1873   11.2965 C   0  0  1  0  0  0  0  0  0  0  0  0
    7.7748   -2.2635   10.5884 O   0  0  0  0  0  0  0  0  0  0  0  0
    1.9949    0.6174   13.2548 O   0  0  0  0  0  0  0  0  0  0  0  0
    0.3238    0.4694   13.5903 P   0  0  1  0  0  5  0  0  0  0  0  0
   -0.0786    1.6469   14.7357 O   0  0  0  0  0  0  0  0  0  0  0  0
   -0.5633    0.6686   12.3788 O   0  0  0  0  0  0  0  0  0  0  0  0
    0.0097   -1.0585   14.2802 O   0  0  0  0  0  0  0  0  0  0  0  0
    0.9805   -1.9742   13.8278 C   0  0  0  0  0  0  0  0  0  0  0  0
    1.1312   -1.8319   12.3092 C   0  0  1  0  0  0  0  0  0  0  0  0
    2.2321   -1.0088   11.9962 O   0  0  0  0  0  0  0  0  0  0  0  0
    1.3495   -3.1815   11.6073 C   0  0  1  0  0  0  0  0  0  0  0  0
    0.1593   -3.6468   11.0231 O   0  0  0  0  0  0  0  0  0  0  0  0
    2.3692   -2.8627   10.5347 C   0  0  0  0  0  0  0  0  0  0  0  0
    2.5721   -1.3600   10.6732 C   0  0  2  0  0  0  0  0  0  0  0  0
    3.9609   -0.9761   10.3413 N   0  0  0  0  0  4  0  0  0  0  0  0
    4.9135   -1.9451   10.1413 C   0  0  0  0  0  0  0  0  0  0  0  0
    4.6091   -3.1691   10.2013 O   0  0  0  0  0  0  0  0  0  0  0  0
    6.2036   -1.6003    9.8840 N   0  0  0  0  0  4  0  0  0  0  0  0
    4.3266    0.3440   10.3152 C   0  0  0  0  0  0  0  0  0  0  0  0
    5.6473    0.7170   10.0337 C   0  0  0  0  0  0  0  0  0  0  0  0
    6.0317    2.1731   10.0184 C   0  0  0  0  0  0  0  0  0  0  0  0
    6.5895   -0.3008    9.8264 C   0  0  0  0  0  0  0  0  0  0  0  0
    7.7975   -0.0223    9.5933 O   0  0  0  0  0  0  0  0  0  0  0  0
    2.0837   -2.1553   13.8445 H   0  0  0  0  0  0  0  0  0  0  0  0
    3.5745   -1.9258   10.1724 H   0  0  0  0  0  0  0  0  0  0  0  0
    6.0632    0.6193   10.8770 H   0  0  0  0  0  0  0  0  0  0  0  0
    6.7474    0.9096    8.5249 H   0  0  0  0  0  0  0  0  0  0  0  0
    7.7804   -0.5642    8.6207 H   0  0  0  0  0  0  0  0  0  0  0  0
    8.1500    0.8843    9.6476 H   0  0  0  0  0  0  0  0  0  0  0  0
    5.3060   -3.2644   11.1561 H   0  0  0  0  0  0  0  0  0  0  0  0
    4.2324   -3.5845   12.9999 H   0  0  0  0  0  0  0  0  0  0  0  0
    5.9164   -0.8506   13.0104 H   0  0  0  0  0  0  0  0  0  0  0  0
    6.2940   -2.9289   14.0386 H   0  0  0  0  0  0  0  0  0  0  0  0
    7.7566   -2.2244   13.6644 H   0  0  0  0  0  0  0  0  0  0  0  0
    7.9969   -0.5815   11.7950 H   0  0  0  0  0  0  0  0  0  0  0  0
    8.6020   -2.5214   11.0704 H   0  0  0  0  0  0  0  0  0  0  0  0
    0.6072    1.5523   15.4419 H   0  0  0  0  0  0  0  0  0  0  0  0
    1.9719   -1.7558   14.2880 H   0  0  0  0  0  0  0  0  0  0  0  0
    0.6819   -3.0195   14.0682 H   0  0  0  0  0  0  0  0  0  0  0  0
    0.2085   -1.3418   11.9156 H   0  0  0  0  0  0  0  0  0  0  0  0
    1.7710   -3.9505   12.2980 H   0  0  0  0  0  0  0  0  0  0  0  0
   -0.4035   -3.9881   11.7645 H   0  0  0  0  0  0  0  0  0  0  0  0
    3.3162   -3.4126   10.7408 H   0  0  0  0  0  0  0  0  0  0  0  0
    2.0127   -3.1209    9.5117 H   0  0  0  0  0  0  0  0  0  0  0  0
    1.8585   -0.8303    9.9975 H   0  0  0  0  0  0  0  0  0  0  0  0
    6.9151   -2.3531    9.7352 H   0  0  0  0  0  0  0  0  0  0  0  0
    3.5948    1.1171   10.5230 H   0  0  0  0  0  0  0  0  0  0  0  0
    7.0339    2.3355    9.5652 H   0  0  0  0  0  0  0  0  0  0  0  0
    6.0417    2.5678   11.0577 H   0  0  0  0  0  0  0  0  0  0  0  0
    5.3032    2.7514    9.4132 H   0  0  0  0  0  0  0  0  0  0  0  0
  2  1  1  1
  2  3  2  0
  2  4  1  0
  5  4  1  0
  5  6  1  0
  6  7  1  0
  7  8  1  0
  5  9  1  0
  9 10  1  0
  9 11  1  0
 11 12  1  0
  7 13  1  0
 11 13  1  0
 13 14  1  0
  2 15  1  0
 16 15  1  6
 16 17  1  0
 16 18  2  0
 16 19  1  0
 19 20  1  0
 21 20  1  0
 21 22  1  0
 21 23  1  0
 23 24  1  0
 23 25  1  0
 22 26  1  0
 25 26  1  0
 26 27  1  0
 27 28  4  0
 28 29  2  0
 28 30  4  0
 27 31  4  0
 31 32  4  0
 32 33  1  0
 30 34  4  0
 32 34  4  0
 34 35  2  0
  1 36  1  0
  5 37  1  6
  7 38  1  1
  8 39  1  0
  8 40  1  0
  8 41  1  0
  9 42  1  6
 10 43  1  0
 11 44  1  1
 12 45  1  0
 12 46  1  0
 13 47  1  1
 14 48  1  0
 17 49  1  0
 20 50  1  0
 20 51  1  0
 21 52  1  6
 23 53  1  1
 24 54  1  0
 25 55  1  0
 25 56  1  0
 26 57  1  6
 30 58  1  0
 31 59  1  0
 33 60  1  0
 33 61  1  0
 33 62  1  0
M  CHG  2  27   1  30   1
M  END
