@<TRIPOS>MOLECULE
2BSM_BSM_A_1224
 45 47 0 0 0
SMALL
GASTEIGER

@<TRIPOS>ATOM
      1 C          -2.9879   -3.8282    3.8989 C.3     1  UNL1        0.0788
      2 O          -1.9343   -2.8744    3.9869 O.3     1  UNL1       -0.4951
      3 C          -1.3970   -2.1852    2.8897 C.ar    1  UNL1        0.1201
      4 C          -1.8599   -2.3809    1.5744 C.ar    1  UNL1       -0.0194
      5 C          -1.2920   -1.6681    0.5145 C.ar    1  UNL1       -0.0504
      6 C          -0.3643   -1.2689    3.1205 C.ar    1  UNL1       -0.0194
      7 C           0.2021   -0.5548    2.0610 C.ar    1  UNL1       -0.0504
      8 C          -0.2534   -0.7551    0.7499 C.ar    1  UNL1       -0.0134
      9 C           0.3157    0.0270   -0.3668 C.ar    1  UNL1        0.0397
     10 C           1.6515    0.1601   -0.7358 C.ar    1  UNL1        0.1551
     11 C           2.8255   -0.5041   -0.1356 C.2     1  UNL1        0.2648
     12 O           2.6656   -1.4356    0.6983 O.2     1  UNL1       -0.2684
     13 N           4.1509   -0.1052   -0.5173 N.am    1  UNL1       -0.3103
     14 C           5.3490   -0.7605    0.0036 C.3     1  UNL1        0.0091
     15 C           5.5476   -2.1202   -0.6572 C.3     1  UNL1       -0.0495
     16 N           1.7348    0.9540   -1.8228 N.ar    1  UNL1       -0.1680
     17 N           0.5095    1.3233   -2.1581 N.ar    1  UNL1       -0.2755
     18 C          -0.3781    0.7802   -1.3038 C.ar    1  UNL1        0.0777
     19 C          -1.8367    1.0289   -1.3553 C.ar    1  UNL1        0.0434
     20 C          -2.5389    1.3324   -0.1765 C.ar    1  UNL1       -0.0272
     21 C          -3.9168    1.5665   -0.2089 C.ar    1  UNL1        0.0831
     22 CL         -4.7645    1.9342    1.2851 Cl      1  UNL1       -0.0797
     23 C          -4.6089    1.5102   -1.4250 C.ar    1  UNL1        0.1386
     24 O          -5.9825    1.7459   -1.4562 O.3     1  UNL1       -0.5052
     25 C          -3.9148    1.2168   -2.6057 C.ar    1  UNL1        0.0234
     26 C          -2.5342    0.9728   -2.5776 C.ar    1  UNL1        0.1296
     27 O          -1.8618    0.6558   -3.7580 O.3     1  UNL1       -0.5060
     28 H          -3.9026   -3.3498    3.4894 H       1  UNL1        0.0660
     29 H          -2.6800   -4.6789    3.2549 H       1  UNL1        0.0660
     30 H          -3.2130   -4.2144    4.9141 H       1  UNL1        0.0660
     31 H          -2.6579   -3.0787    1.3609 H       1  UNL1        0.0654
     32 H          -1.6616   -1.8295   -0.4908 H       1  UNL1        0.0625
     33 H          -0.0034   -1.1048    4.1279 H       1  UNL1        0.0654
     34 H           0.9866    0.1637    2.2649 H       1  UNL1        0.0625
     35 H           4.2761    0.7229   -1.1422 H       1  UNL1        0.1490
     36 H           6.2367   -0.1271   -0.2119 H       1  UNL1        0.0459
     37 H           5.2712   -0.8774    1.1062 H       1  UNL1        0.0459
     38 H           5.6216   -2.0005   -1.7590 H       1  UNL1        0.0245
     39 H           6.4854   -2.5823   -0.2833 H       1  UNL1        0.0245
     40 H           4.7000   -2.7965   -0.4200 H       1  UNL1        0.0245
     41 H           0.2933    1.9631   -2.9543 H       1  UNL1        0.1889
     42 H          -2.0150    1.4011    0.7687 H       1  UNL1        0.0641
     43 H          -6.5072    1.7113   -2.3224 H       1  UNL1        0.2922
     44 H          -4.4501    1.1705   -3.5458 H       1  UNL1        0.0691
     45 H          -2.3443    0.6040   -4.6474 H       1  UNL1        0.2922
@<TRIPOS>BOND
     1     1     2    1
     2     2     3    1
     3     3     4   ar
     4     4     5   ar
     5     3     6   ar
     6     6     7   ar
     7     5     8   ar
     8     7     8   ar
     9     8     9    1
    10     9    10   ar
    11    10    11    1
    12    11    12    2
    13    11    13   am
    14    13    14    1
    15    14    15    1
    16    10    16   ar
    17    16    17   ar
    18     9    18   ar
    19    17    18   ar
    20    18    19    1
    21    19    20   ar
    22    20    21   ar
    23    21    22    1
    24    21    23   ar
    25    23    24    1
    26    23    25   ar
    27    19    26   ar
    28    25    26   ar
    29    26    27    1
    30     1    28    1
    31     1    29    1
    32     1    30    1
    33     4    31    1
    34     5    32    1
    35     6    33    1
    36     7    34    1
    37    13    35    1
    38    14    36    1
    39    14    37    1
    40    15    38    1
    41    15    39    1
    42    15    40    1
    43    17    41    1
    44    20    42    1
    45    24    43    1
    46    25    44    1
    47    27    45    1
