7O0N_CDP_B_304
     RDKit          3D

 25 26  0  0  0  0  0  0  0  0999 V2000
    9.5558   29.0887    4.6969 O   0  0  0  0  0  0  0  0  0  0  0  0
    8.5871   29.9863    3.6511 P   0  0  1  0  0  0  0  0  0  0  0  0
    9.1431   29.8491    2.2347 O   0  0  0  0  0  0  0  0  0  0  0  0
    7.0299   29.3437    3.6319 O   0  0  0  0  0  0  0  0  0  0  0  0
    8.6214   31.6117    4.1121 O   0  0  0  0  0  0  0  0  0  0  0  0
   10.1932   32.1845    4.2716 P   0  0  2  0  0  0  0  0  0  0  0  0
   11.1346   31.6290    3.2379 O   0  0  0  0  0  0  0  0  0  0  0  0
   10.7434   31.7042    5.8071 O   0  0  0  0  0  0  0  0  0  0  0  0
   10.1761   33.8832    4.2686 O   0  0  0  0  0  0  0  0  0  0  0  0
    9.0337   34.3879    3.6929 C   0  0  0  0  0  0  0  0  0  0  0  0
    9.0707   35.8905    3.5419 C   0  0  1  0  0  0  0  0  0  0  0  0
   10.2122   36.4652    4.1077 O   0  0  0  0  0  0  0  0  0  0  0  0
    9.1006   36.3120    2.0944 C   0  0  1  0  0  0  0  0  0  0  0  0
    7.8274   36.7166    1.7395 O   0  0  0  0  0  0  0  0  0  0  0  0
   10.0353   37.5282    2.1452 C   0  0  1  0  0  0  0  0  0  0  0  0
    9.4470   38.6353    1.5582 O   0  0  0  0  0  0  0  0  0  0  0  0
   10.1111   37.7494    3.6279 C   0  0  2  0  0  0  0  0  0  0  0  0
   11.1109   38.6622    4.0629 N   0  0  0  0  0  0  0  0  0  0  0  0
   10.7486   39.9697    4.2062 C   0  0  0  0  0  0  0  0  0  0  0  0
    9.5559   40.3365    3.9545 O   0  0  0  0  0  0  0  0  0  0  0  0
   11.6137   40.9123    4.6107 N   0  0  0  0  0  0  0  0  0  0  0  0
   12.8794   40.6389    4.8990 C   0  0  0  0  0  0  0  0  0  0  0  0
   13.7796   41.6558    5.3265 N   0  0  0  0  0  0  0  0  0  0  0  0
   13.3001   39.3267    4.7705 C   0  0  0  0  0  0  0  0  0  0  0  0
   12.3843   38.3590    4.3478 C   0  0  0  0  0  0  0  0  0  0  0  0
  2  1  1  1
  2  3  2  0
  2  4  1  0
  2  5  1  0
  5  6  1  0
  6  7  2  0
  6  8  1  1
  6  9  1  0
  9 10  1  0
 11 10  1  6
 11 12  1  0
 11 13  1  0
 13 14  1  1
 13 15  1  0
 15 16  1  6
 12 17  1  0
 15 17  1  0
 17 18  1  6
 18 19  1  0
 19 20  2  0
 19 21  1  0
 21 22  2  0
 22 23  1  0
 22 24  1  0
 18 25  1  0
 24 25  2  0
M  END
$$$$
