1TZ8_DES_B_128
     RDKit          3D

 20 21  0  0  0  0  0  0  0  0999 V2000
   33.9343   54.5825   38.8950 C   0  0  0  0  0  0  0  0  0  0  0  0
   32.8177   53.6318   38.6203 C   0  0  0  0  0  0  0  0  0  0  0  0
   32.9582   52.8121   37.3895 C   0  0  0  0  0  0  0  0  0  0  0  0
   34.0987   53.1105   36.5300 C   0  0  0  0  0  0  0  0  0  0  0  0
   35.1090   52.1566   36.3740 C   0  0  0  0  0  0  0  0  0  0  0  0
   36.2199   52.3811   35.5904 C   0  0  0  0  0  0  0  0  0  0  0  0
   36.3706   53.5773   34.9228 C   0  0  0  0  0  0  0  0  0  0  0  0
   37.4849   53.8131   34.1285 O   0  0  0  0  0  0  0  0  0  0  0  0
   35.3903   54.5316   35.0607 C   0  0  0  0  0  0  0  0  0  0  0  0
   34.2604   54.3016   35.8597 C   0  0  0  0  0  0  0  0  0  0  0  0
   32.0706   51.8934   37.0240 C   0  0  0  0  0  0  0  0  0  0  0  0
   30.8146   51.6688   37.7766 C   0  0  0  0  0  0  0  0  0  0  0  0
   29.6718   52.4136   37.4653 C   0  0  0  0  0  0  0  0  0  0  0  0
   28.4991   52.1646   38.1462 C   0  0  0  0  0  0  0  0  0  0  0  0
   28.4520   51.1871   39.1280 C   0  0  0  0  0  0  0  0  0  0  0  0
   27.2670   50.9181   39.8355 O   0  0  0  0  0  0  0  0  0  0  0  0
   29.5625   50.4365   39.4549 C   0  0  0  0  0  0  0  0  0  0  0  0
   30.7250   50.6995   38.7647 C   0  0  0  0  0  0  0  0  0  0  0  0
   32.2617   50.9879   35.8609 C   0  0  0  0  0  0  0  0  0  0  0  0
   30.9984   50.1243   35.7058 C   0  0  0  0  0  0  0  0  0  0  0  0
  1  2  1  0
  2  3  1  0
  3  4  1  0
  4  5  2  0
  5  6  1  0
  6  7  2  0
  7  8  1  0
  7  9  1  0
  4 10  1  0
  9 10  2  0
  3 11  2  0
 11 12  1  0
 12 13  2  0
 13 14  1  0
 14 15  2  0
 15 16  1  0
 15 17  1  0
 12 18  1  0
 17 18  2  0
 11 19  1  0
 19 20  1  0
M  END
$$$$
