1TZ8_DES_B_128
     RDKit          3D

 20 21  0  0  0  0  0  0  0  0999 V2000
   27.0939   72.0268   47.8735 C   0  0  0  0  0  0  0  0  0  0  0  0
   27.2745   70.5475   47.9450 C   0  0  0  0  0  0  0  0  0  0  0  0
   28.4519   70.0794   48.7204 C   0  0  0  0  0  0  0  0  0  0  0  0
   29.1483   71.0797   49.5224 C   0  0  0  0  0  0  0  0  0  0  0  0
   29.0022   71.0678   50.9129 C   0  0  0  0  0  0  0  0  0  0  0  0
   29.6189   71.9933   51.7266 C   0  0  0  0  0  0  0  0  0  0  0  0
   30.4149   72.9778   51.1823 C   0  0  0  0  0  0  0  0  0  0  0  0
   31.0430   73.9138   51.9931 O   0  0  0  0  0  0  0  0  0  0  0  0
   30.5737   73.0104   49.8168 C   0  0  0  0  0  0  0  0  0  0  0  0
   29.9444   72.0680   48.9899 C   0  0  0  0  0  0  0  0  0  0  0  0
   28.9163   68.8363   48.6554 C   0  0  0  0  0  0  0  0  0  0  0  0
   28.6711   67.9646   47.4830 C   0  0  0  0  0  0  0  0  0  0  0  0
   29.3241   66.7313   47.3815 C   0  0  0  0  0  0  0  0  0  0  0  0
   29.0546   65.9126   46.3055 C   0  0  0  0  0  0  0  0  0  0  0  0
   28.1463   66.3061   45.3349 C   0  0  0  0  0  0  0  0  0  0  0  0
   27.8580   65.4874   44.2287 O   0  0  0  0  0  0  0  0  0  0  0  0
   27.4867   67.5156   45.4097 C   0  0  0  0  0  0  0  0  0  0  0  0
   27.7690   68.3203   46.4912 C   0  0  0  0  0  0  0  0  0  0  0  0
   29.6873   68.1922   49.7508 C   0  0  0  0  0  0  0  0  0  0  0  0
   30.1899   66.8266   49.2524 C   0  0  0  0  0  0  0  0  0  0  0  0
  1  2  1  0
  2  3  1  0
  3  4  1  0
  4  5  2  0
  5  6  1  0
  6  7  2  0
  7  8  1  0
  7  9  1  0
  4 10  1  0
  9 10  2  0
  3 11  2  0
 11 12  1  0
 12 13  2  0
 13 14  1  0
 14 15  2  0
 15 16  1  0
 15 17  1  0
 12 18  1  0
 17 18  2  0
 11 19  1  0
 19 20  1  0
M  END
$$$$
