1TZ8_DES_B_128
     RDKit          3D

 20 21  0  0  0  0  0  0  0  0999 V2000
   34.3649   59.4950   18.5685 C   0  0  0  0  0  0  0  0  0  0  0  0
   32.9403   59.2461   18.9355 C   0  0  0  0  0  0  0  0  0  0  0  0
   31.9278   59.8336   18.0209 C   0  0  0  0  0  0  0  0  0  0  0  0
   32.4346   60.5427   16.8509 C   0  0  0  0  0  0  0  0  0  0  0  0
   33.1497   59.8382   15.8776 C   0  0  0  0  0  0  0  0  0  0  0  0
   33.6691   60.4501   14.7576 C   0  0  0  0  0  0  0  0  0  0  0  0
   33.4945   61.8027   14.5593 C   0  0  0  0  0  0  0  0  0  0  0  0
   34.0115   62.4290   13.4330 O   0  0  0  0  0  0  0  0  0  0  0  0
   32.7948   62.5174   15.5029 C   0  0  0  0  0  0  0  0  0  0  0  0
   32.2676   61.8929   16.6431 C   0  0  0  0  0  0  0  0  0  0  0  0
   30.6219   59.7942   18.2624 C   0  0  0  0  0  0  0  0  0  0  0  0
   29.6370   60.4565   17.3757 C   0  0  0  0  0  0  0  0  0  0  0  0
   29.8680   61.7618   16.9281 C   0  0  0  0  0  0  0  0  0  0  0  0
   28.9631   62.3501   16.0703 C   0  0  0  0  0  0  0  0  0  0  0  0
   27.8370   61.6563   15.6551 C   0  0  0  0  0  0  0  0  0  0  0  0
   26.9007   62.2378   14.7820 O   0  0  0  0  0  0  0  0  0  0  0  0
   27.5843   60.3679   16.0790 C   0  0  0  0  0  0  0  0  0  0  0  0
   28.4989   59.7968   16.9360 C   0  0  0  0  0  0  0  0  0  0  0  0
   30.0286   59.1218   19.4477 C   0  0  0  0  0  0  0  0  0  0  0  0
   28.5958   59.6480   19.6373 C   0  0  0  0  0  0  0  0  0  0  0  0
  1  2  1  0
  2  3  1  0
  3  4  1  0
  4  5  2  0
  5  6  1  0
  6  7  2  0
  7  8  1  0
  7  9  1  0
  4 10  1  0
  9 10  2  0
  3 11  2  0
 11 12  1  0
 12 13  2  0
 13 14  1  0
 14 15  2  0
 15 16  1  0
 15 17  1  0
 12 18  1  0
 17 18  2  0
 11 19  1  0
 19 20  1  0
M  END
$$$$
