1TZ8_DES_B_128
     RDKit          3D

 20 21  0  0  0  0  0  0  0  0999 V2000
   35.2676   47.7736   16.2219 C   0  0  0  0  0  0  0  0  0  0  0  0
   34.5511   46.8748   17.1732 C   0  0  0  0  0  0  0  0  0  0  0  0
   34.6292   47.2602   18.6057 C   0  0  0  0  0  0  0  0  0  0  0  0
   35.4331   48.4350   18.9255 C   0  0  0  0  0  0  0  0  0  0  0  0
   36.8278   48.3412   18.8961 C   0  0  0  0  0  0  0  0  0  0  0  0
   37.6448   49.4075   19.2029 C   0  0  0  0  0  0  0  0  0  0  0  0
   37.0997   50.6235   19.5544 C   0  0  0  0  0  0  0  0  0  0  0  0
   37.9136   51.7053   19.8631 O   0  0  0  0  0  0  0  0  0  0  0  0
   35.7300   50.7405   19.5909 C   0  0  0  0  0  0  0  0  0  0  0  0
   34.8999   49.6535   19.2791 C   0  0  0  0  0  0  0  0  0  0  0  0
   34.0656   46.5532   19.5793 C   0  0  0  0  0  0  0  0  0  0  0  0
   33.4285   45.2391   19.3307 C   0  0  0  0  0  0  0  0  0  0  0  0
   32.2896   45.1576   18.5220 C   0  0  0  0  0  0  0  0  0  0  0  0
   31.7320   43.9230   18.2659 C   0  0  0  0  0  0  0  0  0  0  0  0
   32.2932   42.7748   18.8029 C   0  0  0  0  0  0  0  0  0  0  0  0
   31.7397   41.5061   18.5558 O   0  0  0  0  0  0  0  0  0  0  0  0
   33.4166   42.8248   19.6024 C   0  0  0  0  0  0  0  0  0  0  0  0
   33.9594   44.0667   19.8476 C   0  0  0  0  0  0  0  0  0  0  0  0
   33.9875   47.0184   20.9888 C   0  0  0  0  0  0  0  0  0  0  0  0
   32.9787   46.1308   21.7374 C   0  0  0  0  0  0  0  0  0  0  0  0
  1  2  1  0
  2  3  1  0
  3  4  1  0
  4  5  2  0
  5  6  1  0
  6  7  2  0
  7  8  1  0
  7  9  1  0
  4 10  1  0
  9 10  2  0
  3 11  2  0
 11 12  1  0
 12 13  2  0
 13 14  1  0
 14 15  2  0
 15 16  1  0
 15 17  1  0
 12 18  1  0
 17 18  2  0
 11 19  1  0
 19 20  1  0
M  END
$$$$
