8DW5_FQ7_A_201
     RDKit          3D

 18 19  0  0  0  0  0  0  0  0999 V2000
   32.6362   13.4030   24.5256 C   0  0  0  0  0  0  0  0  0  0  0  0
   33.9281   13.6459   24.9214 C   0  0  0  0  0  0  0  0  0  0  0  0
   34.2459   14.7889   25.6123 C   0  0  0  0  0  0  0  0  0  0  0  0
   30.9846   16.4181   25.8685 N   0  0  0  0  0  0  0  0  0  0  0  0
   35.1377   17.0132   26.9711 O   0  0  0  0  0  0  0  0  0  0  0  0
   33.7553   16.9155   26.6827 C   0  0  0  0  0  0  0  0  0  0  0  0
   33.0771   17.8671   27.1063 O   0  0  0  0  0  0  0  0  0  0  0  0
   33.3081   15.7644   25.9566 C   0  0  0  0  0  0  0  0  0  0  0  0
   31.6916   14.3709   24.8638 C   0  0  0  0  0  0  0  0  0  0  0  0
   32.0141   15.5163   25.5577 C   0  0  0  0  0  0  0  0  0  0  0  0
   29.6036   16.1928   25.5660 C   0  0  0  0  0  0  0  0  0  0  0  0
   29.1499   16.4149   24.2755 C   0  0  0  0  0  0  0  0  0  0  0  0
   27.8299   16.2495   23.9073 C   0  0  0  0  0  0  0  0  0  0  0  0
   27.3662   16.5555   22.2589 Cl  0  0  0  0  0  0  0  0  0  0  0  0
   26.9459   15.8448   24.8874 C   0  0  0  0  0  0  0  0  0  0  0  0
   27.3349   15.6100   26.1808 C   0  0  0  0  0  0  0  0  0  0  0  0
   26.1880   15.0963   27.4049 Cl  0  0  0  0  0  0  0  0  0  0  0  0
   28.6768   15.7938   26.4908 C   0  0  0  0  0  0  0  0  0  0  0  0
  1  2  2  0
  2  3  1  0
  5  6  1  0
  6  7  2  0
  6  8  1  0
  3  8  2  0
  1  9  1  0
  9 10  2  0
  4 10  1  0
  8 10  1  0
  4 11  1  0
 11 12  2  0
 12 13  1  0
 13 14  1  0
 13 15  2  0
 15 16  1  0
 16 17  1  0
 16 18  2  0
 11 18  1  0
M  END
$$$$
