
     RDKit          3D

 20 22  0  0  0  0  0  0  0  0999 V2000
  -25.1289    0.3673   62.5095 C   0  0  0  0  0  0  0  0  0  0  0  0
  -24.8325    3.4742   59.6121 C   0  0  0  0  0  0  0  0  0  0  0  0
  -25.7249    1.3508   60.3421 C   0  0  0  0  0  0  0  0  0  0  0  0
  -25.5181   -3.8282   64.8896 C   0  0  0  0  0  0  0  0  0  0  0  0
  -25.3613   -3.0952   63.5893 C   0  0  0  0  0  0  0  0  0  0  0  0
  -25.2770   -3.8289   62.3911 C   0  0  0  0  0  0  0  0  0  0  0  0
  -25.1374   -3.2037   61.1542 C   0  0  0  0  0  0  0  0  0  0  0  0
  -25.0762   -1.8116   61.0674 C   0  0  0  0  0  0  0  0  0  0  0  0
  -25.1559   -1.0399   62.2443 C   0  0  0  0  0  0  0  0  0  0  0  0
  -25.2973   -1.6942   63.4668 C   0  0  0  0  0  0  0  0  0  0  0  0
  -25.2426    0.5507   63.8815 C   0  0  0  0  0  0  0  0  0  0  0  0
  -24.9923    1.4389   61.5359 C   0  0  0  0  0  0  0  0  0  0  0  0
  -24.1831    2.5631   61.7619 C   0  0  0  0  0  0  0  0  0  0  0  0
  -24.1045    3.5749   60.7989 C   0  0  0  0  0  0  0  0  0  0  0  0
  -25.6426    2.3635   59.3844 C   0  0  0  0  0  0  0  0  0  0  0  0
  -25.2663    1.7076   64.7328 C   0  0  0  0  0  0  0  0  0  0  0  0
  -25.3574   -0.7116   64.4268 N   0  0  0  0  0  0  0  0  0  0  0  0
  -25.7720    2.8002   64.1333 O   0  0  0  0  0  0  0  0  0  0  0  0
  -24.8690    1.7598   65.8876 O   0  0  0  0  0  0  0  0  0  0  0  0
  -23.2634    2.7634   63.2138 Cl  0  0  0  0  0  0  0  0  0  0  0  0
  4  5  1  0
  5  6  4  0
  6  7  4  0
  7  8  4  0
  1  9  4  0
  8  9  4  0
  9 10  4  0
  5 10  4  0
  1 11  4  0
  3 12  4  0
  1 12  1  0
 12 13  4  0
  2 14  4  0
 13 14  4  0
  3 15  4  0
  2 15  4  0
 11 16  1  0
 11 17  4  0
 10 17  4  0
 16 18  1  0
 16 19  2  0
 13 20  1  0
M  END
