7V3N_AKG_A_1403
     RDKit          3D

 16 15  0  0  0  0  0  0  0  0999 V2000
  127.4286   83.0933   -3.4464 C   0  0  0  0  0  0  0  0  0  0  0  0
  127.1570   81.8997   -3.1883 O   0  0  0  0  0  0  0  0  0  0  0  0
  127.7352   83.8868   -2.5353 O   0  0  0  0  0  0  0  0  0  0  0  0
  127.3863   83.5439   -4.8339 C   0  0  0  0  0  0  0  0  0  0  0  0
  126.8003   84.5636   -5.1691 O   0  0  0  0  0  0  0  0  0  0  0  0
  128.0788   82.7118   -5.8851 C   0  0  0  0  0  0  0  0  0  0  0  0
  129.5692   82.9649   -5.7880 C   0  0  0  0  0  0  0  0  0  0  0  0
  129.9988   84.0366   -6.7604 C   0  0  0  0  0  0  0  0  0  0  0  0
  130.4548   83.6702   -7.8652 O   0  0  0  0  0  0  0  0  0  0  0  0
  129.9261   85.2378   -6.4205 O   0  0  0  0  0  0  0  0  0  0  0  0
  127.9370   84.7788   -2.7391 H   0  0  0  0  0  0  0  0  0  0  0  0
  127.7272   82.9906   -6.8565 H   0  0  0  0  0  0  0  0  0  0  0  0
  127.8706   81.6739   -5.7292 H   0  0  0  0  0  0  0  0  0  0  0  0
  130.0935   82.0592   -6.0110 H   0  0  0  0  0  0  0  0  0  0  0  0
  129.7958   83.2937   -4.7953 H   0  0  0  0  0  0  0  0  0  0  0  0
  129.5768   85.4671   -5.5817 H   0  0  0  0  0  0  0  0  0  0  0  0
  1  2  2  0
  1  3  1  0
  1  4  1  0
  4  5  2  0
  4  6  1  0
  6  7  1  0
  7  8  1  0
  8  9  2  0
  8 10  1  0
  3 11  1  0
  6 12  1  0
  6 13  1  0
  7 14  1  0
  7 15  1  0
 10 16  1  0
M  END
