
     RDKit          3D

 24 26  0  0  0  0  0  0  0  0999 V2000
   45.0813   40.1259   70.6151 F   0  0  0  0  0  0  0  0  0  0  0  0
   44.7413   39.3963   71.6869 C   0  0  0  0  0  0  0  0  0  0  0  0
   43.7091   39.8308   72.5247 C   0  0  0  0  0  0  0  0  0  0  0  0
   43.0035   41.1235   72.2488 C   0  0  0  0  0  0  0  0  0  0  0  0
   43.3887   39.0629   73.6514 C   0  0  0  0  0  0  0  0  0  0  0  0
   44.0712   37.8633   73.8950 C   0  0  0  0  0  0  0  0  0  0  0  0
   45.1043   37.4410   73.0515 C   0  0  0  0  0  0  0  0  0  0  0  0
   45.4363   38.2152   71.9405 C   0  0  0  0  0  0  0  0  0  0  0  0
   43.6513   36.8838   75.3229 S   0  0  0  0  0  6  0  0  0  0  0  0
   42.9377   37.7434   76.2435 O   0  0  0  0  0  0  0  0  0  0  0  0
   43.0784   35.6386   74.8587 O   0  0  0  0  0  0  0  0  0  0  0  0
   45.1566   36.5838   76.0306 N   0  0  0  0  0  0  0  0  0  0  0  0
   46.0143   37.6774   76.3278 C   0  0  0  0  0  0  0  0  0  0  0  0
   45.7083   38.5587   77.3654 C   0  0  0  0  0  0  0  0  0  0  0  0
   46.5873   39.6012   77.6815 C   0  0  0  0  0  0  0  0  0  0  0  0
   46.3359   40.5151   78.8388 C   0  0  0  0  0  0  0  0  0  0  0  0
   47.1322   41.7304   78.8051 N   0  0  0  0  0  0  0  0  0  0  0  0
   46.8226   42.7405   79.7983 C   0  0  0  0  0  0  0  0  0  0  0  0
   48.3613   41.7736   78.1806 C   0  0  0  0  0  0  0  0  0  0  0  0
   49.1900   42.6644   78.3585 O   0  0  0  0  0  0  0  0  0  0  0  0
   48.6360   40.7759   77.2891 N   0  0  0  0  0  0  0  0  0  0  0  0
   47.7678   39.7406   76.9593 C   0  0  0  0  0  0  0  0  0  0  0  0
   48.0829   38.8607   75.9250 C   0  0  0  0  0  0  0  0  0  0  0  0
   47.1993   37.8278   75.6054 C   0  0  0  0  0  0  0  0  0  0  0  0
  1  2  1  0
  2  3  4  0
  3  4  1  0
  3  5  4  0
  5  6  4  0
  6  7  4  0
  2  8  4  0
  7  8  4  0
  6  9  1  0
  9 10  2  0
  9 11  2  0
  9 12  1  0
 12 13  1  0
 13 14  4  0
 14 15  4  0
 15 16  1  0
 16 17  1  0
 17 18  1  0
 17 19  1  0
 19 20  2  0
 19 21  1  0
 21 22  1  0
 15 22  4  0
 22 23  4  0
 23 24  4  0
 13 24  4  0
M  END
