7UQ3_O2U_A_502
     RDKit          3D

 12 12  0  0  0  0  0  0  0  0999 V2000
    9.8718  142.5119  100.7023 C   0  0  0  0  0  0  0  0  0  0  0  0
    9.8727  143.9027  100.3106 C   0  0  2  0  0  0  0  0  0  0  0  0
   10.6967  144.7594  101.1902 C   0  0  0  0  0  0  0  0  0  0  0  0
   10.4369  146.2558  101.1011 C   0  0  0  0  0  0  0  0  0  0  0  0
    8.4136  144.1896   99.9451 C   0  0  0  0  0  0  0  0  0  0  0  0
    7.9382  142.8500   99.7805 C   0  0  0  0  0  0  0  0  0  0  0  0
    8.7715  141.9399  100.2809 N   0  0  0  0  0  0  0  0  0  0  0  0
    8.6064  140.5621  100.3623 O   0  0  0  0  0  0  0  0  0  0  0  0
   10.7941  146.8537  102.1398 O   0  0  0  0  0  0  0  0  0  0  0  0
    9.8798  146.7458  100.1145 O   0  0  0  0  0  0  0  0  0  0  0  0
    6.8357  142.5303   99.3273 O   0  0  0  0  0  0  0  0  0  0  0  0
   10.7999  141.8747  101.1987 O   0  0  0  0  0  0  0  0  0  0  0  0
  1  2  1  0
  2  3  1  1
  3  4  1  0
  2  5  1  0
  5  6  1  0
  6  7  1  0
  1  7  1  0
  7  8  1  0
  4  9  1  0
  4 10  2  0
  6 11  2  0
  1 12  2  0
M  END
