1W2G_THM_B_1210
     RDKit          3D

 17 18  0  0  0  0  0  0  0  0999 V2000
   37.1863   31.5423   57.9429 O   0  0  0  0  0  0  0  0  0  0  0  0
   36.9009   30.1774   57.8210 C   0  0  0  0  0  0  0  0  0  0  0  0
   35.5734   29.8146   58.4912 C   0  0  1  0  0  0  0  0  0  0  0  0
   35.4039   30.6184   59.5829 O   0  0  0  0  0  0  0  0  0  0  0  0
   34.4980   30.1857   57.4681 C   0  0  1  0  0  0  0  0  0  0  0  0
   33.4124   29.3158   57.5914 O   0  0  0  0  0  0  0  0  0  0  0  0
   34.0541   31.5301   58.0411 C   0  0  0  0  0  0  0  0  0  0  0  0
   34.1295   31.1698   59.5173 C   0  0  2  0  0  0  0  0  0  0  0  0
   33.9667   32.2875   60.3881 N   0  0  0  0  0  0  0  0  0  0  0  0
   32.8193   32.4829   61.0637 C   0  0  0  0  0  0  0  0  0  0  0  0
   31.8873   31.6729   60.9239 O   0  0  0  0  0  0  0  0  0  0  0  0
   32.6907   33.5607   61.8900 N   0  0  0  0  0  0  0  0  0  0  0  0
   33.7020   34.4249   62.0314 C   0  0  0  0  0  0  0  0  0  0  0  0
   33.5369   35.4115   62.8100 O   0  0  0  0  0  0  0  0  0  0  0  0
   34.8871   34.2480   61.3512 C   0  0  0  0  0  0  0  0  0  0  0  0
   36.0182   35.2031   61.5012 C   0  0  0  0  0  0  0  0  0  0  0  0
   35.0066   33.1575   60.5201 C   0  0  0  0  0  0  0  0  0  0  0  0
  2  1  1  1
  3  2  1  0
  3  4  1  1
  3  5  1  0
  5  6  1  1
  5  7  1  0
  4  8  1  0
  7  8  1  1
  8  9  1  1
  9 10  1  0
 10 11  2  0
 10 12  1  0
 12 13  1  0
 13 14  2  0
 13 15  1  0
 16 15  1  6
  9 17  1  0
 15 17  2  0
M  END
$$$$
