7E2S_BLA_A_301
     RDKit          3D

 77 80  0  0  0  0  0  0  0  0999 V2000
    1.1679   -1.4570    1.8111 C   0  0  0  0  0  0  0  0  0  0  0  0
   -1.2629   -1.2860    1.2316 N   0  0  0  0  0  4  0  0  0  0  0  0
   -0.2155   -0.9811    2.0262 C   0  0  0  0  0  0  0  0  0  0  0  0
   -0.6279   -0.1430    3.0531 C   0  0  0  0  0  0  0  0  0  0  0  0
   -1.9862    0.0723    2.8627 C   0  0  0  0  0  0  0  0  0  0  0  0
   -2.3316   -0.6252    1.7114 C   0  0  0  0  0  0  0  0  0  0  0  0
   -2.8865    0.9018    3.7295 C   0  0  0  0  0  0  0  0  0  0  0  0
    0.2195    0.3876    4.1777 C   0  0  0  0  0  0  0  0  0  0  0  0
    0.7762   -0.7636    5.0196 C   0  0  0  0  0  0  0  0  0  0  0  0
    2.2725   -0.7421    5.0232 C   0  0  0  0  0  0  0  0  0  0  0  0
    2.8921    0.0501    5.7851 O   0  0  0  0  0  0  0  0  0  0  0  0
    2.9798   -1.5994    4.1836 O   0  0  0  0  0  0  0  0  0  0  0  0
   -3.6564   -0.6968    1.0728 C   0  0  0  0  0  0  0  0  0  0  0  0
   -2.7457   -0.9450   -1.1831 N   0  0  0  0  0  0  0  0  0  0  0  0
   -3.8167   -0.8124   -0.2527 C   0  0  0  0  0  0  0  0  0  0  0  0
   -5.1037   -0.9588   -0.9598 C   0  0  0  0  0  0  0  0  0  0  0  0
   -4.8501   -1.2006   -2.2540 C   0  0  0  0  0  0  0  0  0  0  0  0
   -3.3914   -1.2020   -2.4180 C   0  0  0  0  0  0  0  0  0  0  0  0
   -6.4620   -0.9470   -0.3192 C   0  0  0  0  0  0  0  0  0  0  0  0
   -2.7656   -1.4630   -3.4795 O   0  0  0  0  0  0  0  0  0  0  0  0
   -5.8689   -1.5023   -3.2856 C   0  0  0  0  0  0  0  0  0  0  0  0
   -6.0900   -0.7218   -4.3414 C   0  0  0  0  0  0  0  0  0  0  0  0
   -0.9895   -2.1432   -2.8048 N   0  0  0  0  0  0  0  0  0  0  0  0
   -2.0960   -2.1625   -3.6892 C   0  0  0  0  0  0  0  0  0  0  0  0
   -2.0812   -3.3678   -4.5083 C   0  0  0  0  0  0  0  0  0  0  0  0
   -0.9995   -4.0778   -4.1747 C   0  0  0  0  0  0  0  0  0  0  0  0
   -0.3024   -3.3679   -3.0749 C   0  0  0  0  0  0  0  0  0  0  0  0
   -3.0904   -3.7299   -5.5546 C   0  0  0  0  0  0  0  0  0  0  0  0
   -2.9551   -1.2428   -3.7532 O   0  0  0  0  0  0  0  0  0  0  0  0
   -0.6217   -5.3593   -4.8076 C   0  0  0  0  0  0  0  0  0  0  0  0
   -1.1627   -5.7751   -5.9503 C   0  0  0  0  0  0  0  0  0  0  0  0
    0.7285   -3.8567   -2.3574 C   0  0  0  0  0  0  0  0  0  0  0  0
    0.6215   -2.5691   -0.2873 N   0  0  0  0  0  0  0  0  0  0  0  0
    1.3184   -3.2071   -1.1672 C   0  0  0  0  0  0  0  0  0  0  0  0
    2.7345   -3.2879   -0.7715 C   0  0  0  0  0  0  0  0  0  0  0  0
    2.8623   -2.6523    0.3968 C   0  0  0  0  0  0  0  0  0  0  0  0
    1.5206   -2.1808    0.7412 C   0  0  0  0  0  0  0  0  0  0  0  0
    3.7957   -4.0757   -1.4843 C   0  0  0  0  0  0  0  0  0  0  0  0
    4.0959   -2.5755    1.2583 C   0  0  0  0  0  0  0  0  0  0  0  0
    3.7916   -3.0446    2.6820 C   0  0  0  0  0  0  0  0  0  0  0  0
    3.4535   -1.8781    3.5545 C   0  0  0  0  0  0  0  0  0  0  0  0
    2.7941   -2.0514    4.6162 O   0  0  0  0  0  0  0  0  0  0  0  0
    3.8390   -0.5963    3.1751 O   0  0  0  0  0  0  0  0  0  0  0  0
    1.9269   -1.1389    2.5123 H   0  0  0  0  0  0  0  0  0  0  0  0
   -1.2663   -1.9223    0.4033 H   0  0  0  0  0  0  0  0  0  0  0  0
   -2.6811    0.6911    4.7990 H   0  0  0  0  0  0  0  0  0  0  0  0
   -3.9524    0.6676    3.5291 H   0  0  0  0  0  0  0  0  0  0  0  0
   -2.7043    1.9787    3.5318 H   0  0  0  0  0  0  0  0  0  0  0  0
    1.0549    0.9903    3.7592 H   0  0  0  0  0  0  0  0  0  0  0  0
   -0.3923    1.0634    4.8152 H   0  0  0  0  0  0  0  0  0  0  0  0
    0.4097   -0.6811    6.0665 H   0  0  0  0  0  0  0  0  0  0  0  0
    0.4264   -1.7352    4.6062 H   0  0  0  0  0  0  0  0  0  0  0  0
    3.9926   -1.5976    4.1727 H   0  0  0  0  0  0  0  0  0  0  0  0
   -4.5171   -0.7619    1.7252 H   0  0  0  0  0  0  0  0  0  0  0  0
   -1.7260   -1.0511   -0.9844 H   0  0  0  0  0  0  0  0  0  0  0  0
   -7.2225   -0.5431   -1.0177 H   0  0  0  0  0  0  0  0  0  0  0  0
   -6.4636   -0.2987    0.5813 H   0  0  0  0  0  0  0  0  0  0  0  0
   -6.7417   -1.9788   -0.0269 H   0  0  0  0  0  0  0  0  0  0  0  0
   -6.4813   -2.3883   -3.1758 H   0  0  0  0  0  0  0  0  0  0  0  0
   -5.5509    0.2007   -4.4983 H   0  0  0  0  0  0  0  0  0  0  0  0
   -6.8528   -0.9933   -5.0591 H   0  0  0  0  0  0  0  0  0  0  0  0
   -0.6977   -1.3320   -2.2184 H   0  0  0  0  0  0  0  0  0  0  0  0
   -2.5795   -3.9345   -6.5186 H   0  0  0  0  0  0  0  0  0  0  0  0
   -3.8127   -2.9000   -5.7043 H   0  0  0  0  0  0  0  0  0  0  0  0
   -3.6504   -4.6325   -5.2334 H   0  0  0  0  0  0  0  0  0  0  0  0
    0.0662   -6.0131   -4.2909 H   0  0  0  0  0  0  0  0  0  0  0  0
   -1.9197   -5.1953   -6.4602 H   0  0  0  0  0  0  0  0  0  0  0  0
   -0.8768   -6.7325   -6.3650 H   0  0  0  0  0  0  0  0  0  0  0  0
    1.1363   -4.8190   -2.6275 H   0  0  0  0  0  0  0  0  0  0  0  0
    3.6309   -4.0289   -2.5800 H   0  0  0  0  0  0  0  0  0  0  0  0
    4.8073   -3.6679   -1.2855 H   0  0  0  0  0  0  0  0  0  0  0  0
    3.7585   -5.1337   -1.1514 H   0  0  0  0  0  0  0  0  0  0  0  0
    4.4736   -1.5318    1.2795 H   0  0  0  0  0  0  0  0  0  0  0  0
    4.9079   -3.1922    0.8198 H   0  0  0  0  0  0  0  0  0  0  0  0
    4.6773   -3.5645    3.1057 H   0  0  0  0  0  0  0  0  0  0  0  0
    2.9426   -3.7630    2.6685 H   0  0  0  0  0  0  0  0  0  0  0  0
    3.6052    0.2062    3.7467 H   0  0  0  0  0  0  0  0  0  0  0  0
  1  3  1  0
  2  3  4  0
  3  4  4  0
  4  5  4  0
  2  6  4  0
  5  6  4  0
  5  7  1  0
  4  8  1  0
  8  9  1  0
  9 10  1  0
 10 11  2  0
 10 12  1  0
  6 13  1  0
 13 15  2  3
 14 15  1  0
 15 16  1  0
 16 17  2  0
 14 18  1  0
 17 18  1  0
 16 19  1  0
 18 20  2  0
 17 21  1  0
 21 22  2  3
 23 24  1  0
 24 25  1  0
 25 26  2  0
 23 27  1  0
 26 27  1  0
 25 28  1  0
 24 29  2  0
 26 30  1  0
 30 31  2  3
 27 32  2  3
 32 34  1  0
 33 34  2  0
 34 35  1  0
 35 36  2  0
  1 37  2  3
 33 37  1  0
 36 37  1  0
 35 38  1  0
 36 39  1  0
 39 40  1  0
 40 41  1  0
 41 42  2  0
 41 43  1  0
  1 44  1  0
  2 45  1  0
  7 46  1  0
  7 47  1  0
  7 48  1  0
  8 49  1  0
  8 50  1  0
  9 51  1  0
  9 52  1  0
 12 53  1  0
 13 54  1  0
 14 55  1  0
 19 56  1  0
 19 57  1  0
 19 58  1  0
 21 59  1  0
 22 60  1  0
 22 61  1  0
 23 62  1  0
 28 63  1  0
 28 64  1  0
 28 65  1  0
 30 66  1  0
 31 67  1  0
 31 68  1  0
 32 69  1  0
 38 70  1  0
 38 71  1  0
 38 72  1  0
 39 73  1  0
 39 74  1  0
 40 75  1  0
 40 76  1  0
 43 77  1  0
M  CHG  1   2   1
M  END
