1R58_AO5_A_501
     RDKit          3D

 45 45  0  0  0  0  0  0  0  0999 V2000
   22.5693   30.3231   13.0697 C   0  0  2  0  0  0  0  0  0  0  0  0
   21.1370   30.2851   12.5372 C   0  0  0  0  0  0  0  0  0  0  0  0
   22.9821   28.9408   13.5510 C   0  0  0  0  0  0  0  0  0  0  0  0
   22.7545   31.4877   14.3913 S   0  0  0  0  0  0  0  0  0  0  0  0
   21.4012   31.0566   15.4826 C   0  0  0  0  0  0  0  0  0  0  0  0
   20.8916   29.6395   15.2594 C   0  0  0  0  0  0  0  0  0  0  0  0
   21.0878   28.8043   16.5187 C   0  0  1  0  0  0  0  0  0  0  0  0
   20.9234   29.8802   17.5133 N   0  0  0  0  0  0  0  0  0  0  0  0
   19.9859   27.6812   16.6528 C   0  0  2  0  0  0  0  0  0  0  0  0
   19.6669   27.1143   15.3867 O   0  0  0  0  0  0  0  0  0  0  0  0
   18.7225   28.2627   17.2473 C   0  0  0  0  0  0  0  0  0  0  0  0
   18.2422   27.8811   18.2976 O   0  0  0  0  0  0  0  0  0  0  0  0
   18.1244   29.3113   16.3834 N   0  0  0  0  0  0  0  0  0  0  0  0
   16.7022   29.6543   16.4578 N   0  0  0  0  0  0  0  0  0  0  0  0
   16.0571   30.3219   15.4442 C   0  0  0  0  0  0  0  0  0  0  0  0
   16.6949   31.1697   14.7879 O   0  0  0  0  0  0  0  0  0  0  0  0
   14.6204   30.0274   15.1334 C   0  0  0  0  0  0  0  0  0  0  0  0
   13.4696   30.1658   16.0871 C   0  0  0  0  0  0  0  0  0  0  0  0
   12.0909   29.8291   15.6204 C   0  0  0  0  0  0  0  0  0  0  0  0
   11.8524   29.3566   14.2234 C   0  0  0  0  0  0  0  0  0  0  0  0
   13.0025   29.2294   13.3109 C   0  0  0  0  0  0  0  0  0  0  0  0
   14.3498   29.5518   13.7392 C   0  0  0  0  0  0  0  0  0  0  0  0
   12.8073   28.6909   11.6976 Cl  0  0  0  0  0  0  0  0  0  0  0  0
   23.2013   30.6340   12.2641 H   0  0  0  0  0  0  0  0  0  0  0  0
   20.4746   29.9770   13.3191 H   0  0  0  0  0  0  0  0  0  0  0  0
   21.0777   29.5922   11.7233 H   0  0  0  0  0  0  0  0  0  0  0  0
   20.8564   31.2596   12.1965 H   0  0  0  0  0  0  0  0  0  0  0  0
   22.3447   28.6392   14.3559 H   0  0  0  0  0  0  0  0  0  0  0  0
   23.9958   28.9689   13.8912 H   0  0  0  0  0  0  0  0  0  0  0  0
   22.8962   28.2421   12.7445 H   0  0  0  0  0  0  0  0  0  0  0  0
   20.5952   31.7400   15.3147 H   0  0  0  0  0  0  0  0  0  0  0  0
   21.7675   31.1141   16.4861 H   0  0  0  0  0  0  0  0  0  0  0  0
   21.4323   29.1930   14.4525 H   0  0  0  0  0  0  0  0  0  0  0  0
   19.8484   29.6761   15.0237 H   0  0  0  0  0  0  0  0  0  0  0  0
   22.0017   28.2523   16.5842 H   0  0  0  0  0  0  0  0  0  0  0  0
   20.0261   30.3424   17.3670 H   0  0  0  0  0  0  0  0  0  0  0  0
   21.6777   30.5589   17.4080 H   0  0  0  0  0  0  0  0  0  0  0  0
   20.3815   26.9178   17.2898 H   0  0  0  0  0  0  0  0  0  0  0  0
   19.3077   27.8026   14.8053 H   0  0  0  0  0  0  0  0  0  0  0  0
   18.6986   29.7897   15.7428 H   0  0  0  0  0  0  0  0  0  0  0  0
   16.1917   29.3981   17.2604 H   0  0  0  0  0  0  0  0  0  0  0  0
   13.6293   30.4899   17.0546 H   0  0  0  0  0  0  0  0  0  0  0  0
   11.2955   29.9242   16.2704 H   0  0  0  0  0  0  0  0  0  0  0  0
   10.9000   29.1232   13.9022 H   0  0  0  0  0  0  0  0  0  0  0  0
   15.1320   29.4520   13.0740 H   0  0  0  0  0  0  0  0  0  0  0  0
  1  2  1  0
  1  3  1  0
  1  4  1  0
  4  5  1  0
  5  6  1  0
  6  7  1  0
  7  8  1  0
  7  9  1  0
  9 10  1  0
  9 11  1  0
 11 12  2  0
 11 13  1  0
 13 14  1  0
 14 15  1  0
 15 16  2  0
 15 17  1  0
 17 18  2  0
 18 19  1  0
 19 20  2  0
 20 21  1  0
 17 22  1  0
 21 22  2  0
 21 23  1  0
  1 24  1  6
  2 25  1  0
  2 26  1  0
  2 27  1  0
  3 28  1  0
  3 29  1  0
  3 30  1  0
  5 31  1  0
  5 32  1  0
  6 33  1  0
  6 34  1  0
  7 35  1  6
  8 36  1  0
  8 37  1  0
  9 38  1  1
 10 39  1  0
 13 40  1  0
 14 41  1  0
 18 42  1  0
 19 43  1  0
 20 44  1  0
 22 45  1  0
M  END
