7A9E_R4W_A_405
     RDKit          3D

  6  5  0  0  0  0  0  0  0  0999 V2000
   12.3184   40.5781    5.6995 C   0  0  0  0  0  0  0  0  0  0  0  0
   10.6040   40.6591    8.7575 C   0  0  0  0  0  0  0  0  0  0  0  0
    9.7388   42.9122    7.6260 O   0  0  0  0  0  0  0  0  0  0  0  0
   11.7637   41.8093    6.3111 C   0  0  0  0  0  0  0  0  0  0  0  0
    9.2740   40.8409    6.4826 O   0  0  0  0  0  0  0  0  0  0  0  0
   10.3208   41.5601    7.2840 S   0  0  1  0  0  6  0  0  0  0  0  0
  4  1  1  1
  3  6  2  0
  4  6  1  0
  6  2  1  1
  5  6  2  0
M  END
$$$$
