1T9B_1CS_B_1695
     RDKit          3D

 23 24  0  0  0  0  0  0  0  0999 V2000
   23.0763   15.7480  135.1898 C   0  0  0  0  0  0  0  0  0  0  0  0
   22.3372   16.8982  134.8611 O   0  0  0  0  0  0  0  0  0  0  0  0
   22.7939   18.1540  135.2203 C   0  0  0  0  0  0  0  0  0  0  0  0
   22.4660   18.6834  136.4149 N   0  0  0  0  0  0  0  0  0  0  0  0
   22.9148   19.9157  136.7662 C   0  0  0  0  0  0  0  0  0  0  0  0
   22.5647   20.5275  138.0889 C   0  0  0  0  0  0  0  0  0  0  0  0
   23.6875   20.5703  135.8817 N   0  0  0  0  0  0  0  0  0  0  0  0
   24.0331   20.0738  134.6850 C   0  0  0  0  0  0  0  0  0  0  0  0
   24.8556   20.8056  133.7792 N   0  0  0  0  0  0  0  0  0  0  0  0
   25.6123   21.9290  134.2336 C   0  0  0  0  0  0  0  0  0  0  0  0
   26.5694   22.2809  133.5042 O   0  0  0  0  0  0  0  0  0  0  0  0
   25.2306   22.5417  135.4431 N   0  0  0  0  0  0  0  0  0  0  0  0
   26.2823   23.2133  136.6148 S   0  0  2  0  0  0  0  0  0  0  0  0
   26.1653   22.3836  137.8964 O   0  0  0  0  0  0  0  0  0  0  0  0
   25.7198   24.5747  136.9778 O   0  0  0  0  0  0  0  0  0  0  0  0
   27.9417   23.3292  136.1301 C   0  0  0  0  0  0  0  0  0  0  0  0
   28.4481   24.6137  135.8878 C   0  0  0  0  0  0  0  0  0  0  0  0
   29.7521   24.8177  135.4905 C   0  0  0  0  0  0  0  0  0  0  0  0
   30.6317   23.7658  135.3094 C   0  0  0  0  0  0  0  0  0  0  0  0
   30.1343   22.5010  135.5477 C   0  0  0  0  0  0  0  0  0  0  0  0
   28.8097   22.2968  135.9512 C   0  0  0  0  0  0  0  0  0  0  0  0
   23.5739   18.8529  134.3661 N   0  0  0  0  0  0  0  0  0  0  0  0
   28.2970   20.6786  136.2304 Cl  0  0  0  0  0  0  0  0  0  0  0  0
  1  2  1  0
  2  3  1  0
  3  4  2  0
  4  5  1  0
  5  6  1  0
  5  7  2  0
  7  8  1  0
  8  9  1  0
  9 10  1  0
 10 11  2  0
 10 12  1  0
 13 12  1  6
 13 14  2  0
 13 15  2  0
 13 16  1  0
 16 17  2  0
 17 18  1  0
 18 19  2  0
 19 20  1  0
 16 21  1  0
 20 21  2  0
  3 22  1  0
  8 22  2  0
 21 23  1  0
M  END
$$$$
