1T9B_1CS_B_1695
     RDKit          3D

 23 24  0  0  0  0  0  0  0  0999 V2000
  -14.8145   59.7650  128.2133 C   0  0  0  0  0  0  0  0  0  0  0  0
  -15.9976   59.8497  127.4581 O   0  0  0  0  0  0  0  0  0  0  0  0
  -16.1797   59.0494  126.3441 C   0  0  0  0  0  0  0  0  0  0  0  0
  -17.3830   58.9810  125.7424 N   0  0  0  0  0  0  0  0  0  0  0  0
  -17.5604   58.1954  124.6494 C   0  0  0  0  0  0  0  0  0  0  0  0
  -18.8886   58.1015  123.9613 C   0  0  0  0  0  0  0  0  0  0  0  0
  -16.4980   57.5018  124.2045 N   0  0  0  0  0  0  0  0  0  0  0  0
  -15.2869   57.5462  124.7785 C   0  0  0  0  0  0  0  0  0  0  0  0
  -14.1888   56.7922  124.2706 N   0  0  0  0  0  0  0  0  0  0  0  0
  -13.6359   55.7158  125.0300 C   0  0  0  0  0  0  0  0  0  0  0  0
  -12.6695   56.0051  125.7745 O   0  0  0  0  0  0  0  0  0  0  0  0
  -14.2095   54.4374  124.8852 N   0  0  0  0  0  0  0  0  0  0  0  0
  -13.8815   53.0642  125.8529 S   0  0  2  0  0  0  0  0  0  0  0  0
  -12.8276   52.2140  125.1381 O   0  0  0  0  0  0  0  0  0  0  0  0
  -15.1386   52.2149  125.8469 O   0  0  0  0  0  0  0  0  0  0  0  0
  -13.3679   53.4129  127.4706 C   0  0  0  0  0  0  0  0  0  0  0  0
  -14.3050   53.2167  128.4946 C   0  0  0  0  0  0  0  0  0  0  0  0
  -14.0023   53.4708  129.8150 C   0  0  0  0  0  0  0  0  0  0  0  0
  -12.7574   53.9332  130.2013 C   0  0  0  0  0  0  0  0  0  0  0  0
  -11.8342   54.1265  129.1943 C   0  0  0  0  0  0  0  0  0  0  0  0
  -12.1442   53.8676  127.8541 C   0  0  0  0  0  0  0  0  0  0  0  0
  -15.1427   58.3321  125.8577 N   0  0  0  0  0  0  0  0  0  0  0  0
  -10.9146   54.1338  126.6808 Cl  0  0  0  0  0  0  0  0  0  0  0  0
  1  2  1  0
  2  3  1  0
  3  4  2  0
  4  5  1  0
  5  6  1  0
  5  7  2  0
  7  8  1  0
  8  9  1  0
  9 10  1  0
 10 11  2  0
 10 12  1  0
 13 12  1  6
 13 14  2  0
 13 15  2  0
 13 16  1  0
 16 17  2  0
 17 18  1  0
 18 19  2  0
 19 20  1  0
 16 21  1  0
 20 21  2  0
  3 22  1  0
  8 22  2  0
 21 23  1  0
M  END
$$$$
