1T9B_1CS_B_1695
     RDKit          3D

 23 24  0  0  0  0  0  0  0  0999 V2000
  -15.5635   56.9423  124.1628 C   0  0  0  0  0  0  0  0  0  0  0  0
  -15.0706   57.0882  125.4716 O   0  0  0  0  0  0  0  0  0  0  0  0
  -14.0579   56.2682  125.9371 C   0  0  0  0  0  0  0  0  0  0  0  0
  -13.4614   56.5237  127.1177 N   0  0  0  0  0  0  0  0  0  0  0  0
  -12.4678   55.7183  127.5734 C   0  0  0  0  0  0  0  0  0  0  0  0
  -11.7879   55.9803  128.8832 C   0  0  0  0  0  0  0  0  0  0  0  0
  -12.1143   54.6733  126.8049 N   0  0  0  0  0  0  0  0  0  0  0  0
  -12.6861   54.3897  125.6256 C   0  0  0  0  0  0  0  0  0  0  0  0
  -12.2773   53.2691  124.8448 N   0  0  0  0  0  0  0  0  0  0  0  0
  -12.0548   53.4071  123.4404 C   0  0  0  0  0  0  0  0  0  0  0  0
  -13.0537   53.7241  122.7521 O   0  0  0  0  0  0  0  0  0  0  0  0
  -10.7547   53.1802  122.9483 N   0  0  0  0  0  0  0  0  0  0  0  0
  -10.3476   52.6086  121.3870 S   0  0  2  0  0  0  0  0  0  0  0  0
   -8.8833   52.1615  121.4064 O   0  0  0  0  0  0  0  0  0  0  0  0
  -10.3774   53.8096  120.4605 O   0  0  0  0  0  0  0  0  0  0  0  0
  -11.3526   51.3301  120.7891 C   0  0  0  0  0  0  0  0  0  0  0  0
  -12.0413   51.5662  119.5911 C   0  0  0  0  0  0  0  0  0  0  0  0
  -12.8728   50.6194  119.0323 C   0  0  0  0  0  0  0  0  0  0  0  0
  -13.0725   49.3851  119.6234 C   0  0  0  0  0  0  0  0  0  0  0  0
  -12.3950   49.1516  120.8025 C   0  0  0  0  0  0  0  0  0  0  0  0
  -11.5512   50.1148  121.3677 C   0  0  0  0  0  0  0  0  0  0  0  0
  -13.6657   55.2044  125.2017 N   0  0  0  0  0  0  0  0  0  0  0  0
  -10.7476   49.7148  122.8352 Cl  0  0  0  0  0  0  0  0  0  0  0  0
  1  2  1  0
  2  3  1  0
  3  4  2  0
  4  5  1  0
  5  6  1  0
  5  7  2  0
  7  8  1  0
  8  9  1  0
  9 10  1  0
 10 11  2  0
 10 12  1  0
 13 12  1  1
 13 14  2  0
 13 15  2  0
 13 16  1  0
 16 17  2  0
 17 18  1  0
 18 19  2  0
 19 20  1  0
 16 21  1  0
 20 21  2  0
  3 22  1  0
  8 22  2  0
 21 23  1  0
M  END
$$$$
