1T9B_1CS_B_1695
     RDKit          3D

 23 24  0  0  0  0  0  0  0  0999 V2000
   32.0267   21.7708  135.4703 C   0  0  0  0  0  0  0  0  0  0  0  0
   32.2632   20.5297  136.0875 O   0  0  0  0  0  0  0  0  0  0  0  0
   31.2537   19.5883  136.1834 C   0  0  0  0  0  0  0  0  0  0  0  0
   31.5161   18.3514  136.6482 N   0  0  0  0  0  0  0  0  0  0  0  0
   30.5247   17.4284  136.7418 C   0  0  0  0  0  0  0  0  0  0  0  0
   30.7898   16.0456  137.2555 C   0  0  0  0  0  0  0  0  0  0  0  0
   29.2918   17.8006  136.3557 N   0  0  0  0  0  0  0  0  0  0  0  0
   28.9953   19.0222  135.8886 C   0  0  0  0  0  0  0  0  0  0  0  0
   27.6716   19.3714  135.4908 N   0  0  0  0  0  0  0  0  0  0  0  0
   27.0894   20.6053  135.9145 C   0  0  0  0  0  0  0  0  0  0  0  0
   25.8365   20.6431  135.9430 O   0  0  0  0  0  0  0  0  0  0  0  0
   27.9528   21.6630  136.2607 N   0  0  0  0  0  0  0  0  0  0  0  0
   27.5175   23.3085  136.4415 S   0  0  2  0  0  0  0  0  0  0  0  0
   28.7971   24.1234  136.6490 O   0  0  0  0  0  0  0  0  0  0  0  0
   26.7659   23.4200  137.7546 O   0  0  0  0  0  0  0  0  0  0  0  0
   26.5955   23.9712  135.1327 C   0  0  0  0  0  0  0  0  0  0  0  0
   25.3517   24.5354  135.4491 C   0  0  0  0  0  0  0  0  0  0  0  0
   24.5355   25.0831  134.4829 C   0  0  0  0  0  0  0  0  0  0  0  0
   24.8994   25.1056  133.1487 C   0  0  0  0  0  0  0  0  0  0  0  0
   26.1233   24.5506  132.8363 C   0  0  0  0  0  0  0  0  0  0  0  0
   26.9504   23.9952  133.8195 C   0  0  0  0  0  0  0  0  0  0  0  0
   29.9968   19.9130  135.8078 N   0  0  0  0  0  0  0  0  0  0  0  0
   28.4602   23.3392  133.3203 Cl  0  0  0  0  0  0  0  0  0  0  0  0
  1  2  1  0
  2  3  1  0
  3  4  2  0
  4  5  1  0
  5  6  1  0
  5  7  2  0
  7  8  1  0
  8  9  1  0
  9 10  1  0
 10 11  2  0
 10 12  1  0
 13 12  1  6
 13 14  2  0
 13 15  2  0
 13 16  1  0
 16 17  2  0
 17 18  1  0
 18 19  2  0
 19 20  1  0
 16 21  1  0
 20 21  2  0
  3 22  1  0
  8 22  2  0
 21 23  1  0
M  END
$$$$
