1T9B_1CS_B_1695
     RDKit          3D

 23 24  0  0  0  0  0  0  0  0999 V2000
  -18.8062   37.6141  120.4635 C   0  0  0  0  0  0  0  0  0  0  0  0
  -18.7835   38.3234  121.6775 O   0  0  0  0  0  0  0  0  0  0  0  0
  -19.2150   39.6370  121.7325 C   0  0  0  0  0  0  0  0  0  0  0  0
  -20.2504   40.0473  120.9747 N   0  0  0  0  0  0  0  0  0  0  0  0
  -20.6729   41.3365  121.0296 C   0  0  0  0  0  0  0  0  0  0  0  0
  -21.8222   41.8187  120.1971 C   0  0  0  0  0  0  0  0  0  0  0  0
  -20.0209   42.1685  121.8605 N   0  0  0  0  0  0  0  0  0  0  0  0
  -18.9873   41.7941  122.6285 C   0  0  0  0  0  0  0  0  0  0  0  0
  -18.3264   42.7129  123.4954 N   0  0  0  0  0  0  0  0  0  0  0  0
  -18.9025   43.9906  123.7720 C   0  0  0  0  0  0  0  0  0  0  0  0
  -19.9227   44.2912  123.1081 O   0  0  0  0  0  0  0  0  0  0  0  0
  -18.2903   44.7974  124.7510 N   0  0  0  0  0  0  0  0  0  0  0  0
  -18.6979   46.4161  125.1298 S   0  0  2  0  0  0  0  0  0  0  0  0
  -17.8506   46.8569  126.3265 O   0  0  0  0  0  0  0  0  0  0  0  0
  -20.1244   46.3982  125.6461 O   0  0  0  0  0  0  0  0  0  0  0  0
  -18.5172   47.5422  123.8254 C   0  0  0  0  0  0  0  0  0  0  0  0
  -19.6861   48.1313  123.3236 C   0  0  0  0  0  0  0  0  0  0  0  0
  -19.6555   49.0343  122.2826 C   0  0  0  0  0  0  0  0  0  0  0  0
  -18.4697   49.4080  121.6767 C   0  0  0  0  0  0  0  0  0  0  0  0
  -17.3186   48.8288  122.1699 C   0  0  0  0  0  0  0  0  0  0  0  0
  -17.3525   47.9122  123.2273 C   0  0  0  0  0  0  0  0  0  0  0  0
  -18.5927   40.5129  122.5523 N   0  0  0  0  0  0  0  0  0  0  0  0
  -15.8567   47.2586  123.7700 Cl  0  0  0  0  0  0  0  0  0  0  0  0
  1  2  1  0
  2  3  1  0
  3  4  2  0
  4  5  1  0
  5  6  1  0
  5  7  2  0
  7  8  1  0
  8  9  1  0
  9 10  1  0
 10 11  2  0
 10 12  1  0
 13 12  1  6
 13 14  2  0
 13 15  2  0
 13 16  1  0
 16 17  2  0
 17 18  1  0
 18 19  2  0
 19 20  1  0
 16 21  1  0
 20 21  2  0
  3 22  1  0
  8 22  2  0
 21 23  1  0
M  END
$$$$
