1T9B_1CS_B_1695
     RDKit          3D

 23 24  0  0  0  0  0  0  0  0999 V2000
   31.0183   22.4865  136.7236 C   0  0  0  0  0  0  0  0  0  0  0  0
   29.8967   23.2840  137.0123 O   0  0  0  0  0  0  0  0  0  0  0  0
   28.6218   22.8412  136.7070 C   0  0  0  0  0  0  0  0  0  0  0  0
   28.4139   21.5626  136.3372 N   0  0  0  0  0  0  0  0  0  0  0  0
   27.1624   21.1293  136.0378 C   0  0  0  0  0  0  0  0  0  0  0  0
   26.9038   19.7122  135.6239 C   0  0  0  0  0  0  0  0  0  0  0  0
   26.1594   22.0203  136.1263 N   0  0  0  0  0  0  0  0  0  0  0  0
   26.3303   23.2995  136.4908 C   0  0  0  0  0  0  0  0  0  0  0  0
   25.2351   24.2086  136.5705 N   0  0  0  0  0  0  0  0  0  0  0  0
   25.4594   25.5898  136.8588 C   0  0  0  0  0  0  0  0  0  0  0  0
   26.4352   25.8467  137.6029 O   0  0  0  0  0  0  0  0  0  0  0  0
   24.5827   26.5370  136.2946 N   0  0  0  0  0  0  0  0  0  0  0  0
   24.6515   28.2341  136.5074 S   0  0  2  0  0  0  0  0  0  0  0  0
   24.0932   28.5670  137.8936 O   0  0  0  0  0  0  0  0  0  0  0  0
   23.6593   28.8374  135.5311 O   0  0  0  0  0  0  0  0  0  0  0  0
   26.2249   28.9339  136.3155 C   0  0  0  0  0  0  0  0  0  0  0  0
   26.8141   29.5025  137.4535 C   0  0  0  0  0  0  0  0  0  0  0  0
   28.0592   30.0921  137.4093 C   0  0  0  0  0  0  0  0  0  0  0  0
   28.7948   30.1547  136.2397 C   0  0  0  0  0  0  0  0  0  0  0  0
   28.2158   29.5953  135.1191 C   0  0  0  0  0  0  0  0  0  0  0  0
   26.9513   28.9971  135.1668 C   0  0  0  0  0  0  0  0  0  0  0  0
   27.5793   23.6981  136.7806 N   0  0  0  0  0  0  0  0  0  0  0  0
   26.3285   28.3216  133.7124 Cl  0  0  0  0  0  0  0  0  0  0  0  0
  1  2  1  0
  2  3  1  0
  3  4  2  0
  4  5  1  0
  5  6  1  0
  5  7  2  0
  7  8  1  0
  8  9  1  0
  9 10  1  0
 10 11  2  0
 10 12  1  0
 13 12  1  6
 13 14  2  0
 13 15  2  0
 13 16  1  0
 16 17  2  0
 17 18  1  0
 18 19  2  0
 19 20  1  0
 16 21  1  0
 20 21  2  0
  3 22  1  0
  8 22  2  0
 21 23  1  0
M  END
$$$$
