7T0D_FPP_B_646
     RDKit          3D

 52 51  0  0  0  0  0  0  0  0999 V2000
   33.6653  -31.7289   -1.1561 C   0  0  2  0  0  0  0  0  0  0  0  0
   34.5923  -31.9417   -0.1183 O   0  0  0  0  0  0  0  0  0  0  0  0
   32.5448  -32.7246   -1.0339 C   0  0  0  0  0  0  0  0  0  0  0  0
   31.9638  -33.0624    0.1397 C   0  0  0  0  0  0  0  0  0  0  0  0
   32.4327  -32.4742    1.4510 C   0  0  2  0  0  0  0  0  0  0  0  0
   30.8257  -34.0640    0.1416 C   0  0  2  0  0  0  0  0  0  0  0  0
   31.3277  -35.5109    0.0251 C   0  0  2  0  0  0  0  0  0  0  0  0
   31.2763  -36.0204   -1.3963 C   0  0  0  0  0  0  0  0  0  0  0  0
   30.4545  -35.5038   -2.3354 C   0  0  0  0  0  0  0  0  0  0  0  0
   29.5157  -34.3638   -2.0189 C   0  0  2  0  0  0  0  0  0  0  0  0
   30.4708  -36.0837   -3.7324 C   0  0  1  0  0  0  0  0  0  0  0  0
   30.9645  -35.0461   -4.7467 C   0  0  1  0  0  0  0  0  0  0  0  0
   31.3392  -35.7078   -6.0500 C   0  0  0  0  0  0  0  0  0  0  0  0
   30.6924  -35.5106   -7.2205 C   0  0  0  0  0  0  0  0  0  0  0  0
   31.1546  -36.2745   -8.4349 C   0  0  2  0  0  0  0  0  0  0  0  0
   29.5390  -34.5422   -7.3448 C   0  0  2  0  0  0  0  0  0  0  0  0
   35.2682  -33.4973   -0.2997 P   0  0  2  0  0  5  0  0  0  0  0  0
   35.5206  -33.7555   -1.7705 O   0  0  0  0  0  0  0  0  0  0  0  0
   34.2057  -34.6633    0.3219 O   0  0  0  0  0  0  0  0  0  0  0  0
   36.7384  -33.5257    0.5585 O   0  0  0  0  0  0  0  0  0  0  0  0
   37.6844  -34.7956   -0.0677 P   0  0  2  0  0  5  0  0  0  0  0  0
   39.1415  -34.4829    0.1895 O   0  0  0  0  0  0  0  0  0  0  0  0
   37.4497  -34.9528   -1.7375 O   0  0  0  0  0  0  0  0  0  0  0  0
   37.3015  -36.2576    0.6954 O   0  0  0  0  0  0  0  0  0  0  0  0
   34.1605  -31.8890   -2.1395 H   0  0  0  0  0  0  0  0  0  0  0  0
   33.2312  -30.7037   -1.1357 H   0  0  0  0  0  0  0  0  0  0  0  0
   32.1794  -33.1743   -1.9535 H   0  0  0  0  0  0  0  0  0  0  0  0
   33.3651  -32.9753    1.7823 H   0  0  0  0  0  0  0  0  0  0  0  0
   31.6732  -32.6047    2.2488 H   0  0  0  0  0  0  0  0  0  0  0  0
   32.6160  -31.3858    1.3375 H   0  0  0  0  0  0  0  0  0  0  0  0
   30.1143  -33.8583   -0.6874 H   0  0  0  0  0  0  0  0  0  0  0  0
   30.2488  -33.9546    1.0856 H   0  0  0  0  0  0  0  0  0  0  0  0
   30.6839  -36.1564    0.6607 H   0  0  0  0  0  0  0  0  0  0  0  0
   32.3673  -35.5761    0.4109 H   0  0  0  0  0  0  0  0  0  0  0  0
   31.9319  -36.8419   -1.6749 H   0  0  0  0  0  0  0  0  0  0  0  0
   29.3419  -34.3082   -0.9240 H   0  0  0  0  0  0  0  0  0  0  0  0
   28.5341  -34.4971   -2.5188 H   0  0  0  0  0  0  0  0  0  0  0  0
   29.9489  -33.4055   -2.3750 H   0  0  0  0  0  0  0  0  0  0  0  0
   31.1295  -36.9801   -3.7572 H   0  0  0  0  0  0  0  0  0  0  0  0
   29.4538  -36.4282   -4.0148 H   0  0  0  0  0  0  0  0  0  0  0  0
   30.1986  -34.2572   -4.9028 H   0  0  0  0  0  0  0  0  0  0  0  0
   31.8708  -34.5453   -4.3414 H   0  0  0  0  0  0  0  0  0  0  0  0
   32.1709  -36.4083   -6.0212 H   0  0  0  0  0  0  0  0  0  0  0  0
   31.7183  -35.5977   -9.1114 H   0  0  0  0  0  0  0  0  0  0  0  0
   30.2757  -36.6812   -8.9791 H   0  0  0  0  0  0  0  0  0  0  0  0
   31.8166  -37.1221   -8.1617 H   0  0  0  0  0  0  0  0  0  0  0  0
   28.7785  -34.7452   -6.5637 H   0  0  0  0  0  0  0  0  0  0  0  0
   29.0395  -34.6291   -8.3321 H   0  0  0  0  0  0  0  0  0  0  0  0
   29.9064  -33.5001   -7.2424 H   0  0  0  0  0  0  0  0  0  0  0  0
   34.2903  -34.5950    1.3060 H   0  0  0  0  0  0  0  0  0  0  0  0
   36.4781  -34.8115   -1.8702 H   0  0  0  0  0  0  0  0  0  0  0  0
   36.3121  -36.2620    0.7500 H   0  0  0  0  0  0  0  0  0  0  0  0
  1  2  1  0
  1  3  1  0
  3  4  2  0
  4  5  1  0
  4  6  1  0
  6  7  1  0
  7  8  1  0
  8  9  2  0
  9 10  1  0
  9 11  1  0
 11 12  1  0
 12 13  1  0
 13 14  2  0
 14 15  1  0
 14 16  1  0
 17  2  1  6
 17 18  2  0
 17 19  1  0
 17 20  1  0
 21 20  1  1
 21 22  2  0
 21 23  1  0
 21 24  1  0
  1 25  1  6
  1 26  1  0
  3 27  1  0
  5 28  1  1
  5 29  1  0
  5 30  1  0
  6 31  1  6
  6 32  1  0
  7 33  1  1
  7 34  1  0
  8 35  1  0
 10 36  1  1
 10 37  1  0
 10 38  1  0
 11 39  1  1
 11 40  1  0
 12 41  1  6
 12 42  1  0
 13 43  1  0
 15 44  1  6
 15 45  1  0
 15 46  1  0
 16 47  1  1
 16 48  1  0
 16 49  1  0
 19 50  1  0
 23 51  1  0
 24 52  1  0
M  END
