1W1P_GIO_B_1501
     RDKit          3D

 11 12  0  0  0  0  0  0  0  0999 V2000
   31.5883   57.6179   77.1120 O   0  0  0  0  0  0  0  0  0  0  0  0
   31.2468   57.7026   78.2908 C   0  0  0  0  0  0  0  0  0  0  0  0
   32.0200   56.9459   79.3705 C   0  0  2  0  0  0  0  0  0  0  0  0
   32.6020   55.6403   78.8263 C   0  0  0  0  0  0  0  0  0  0  0  0
   32.8700   54.9003   80.1388 C   0  0  0  0  0  0  0  0  0  0  0  0
   31.5423   55.0903   80.8786 C   0  0  0  0  0  0  0  0  0  0  0  0
   31.1245   56.4357   80.4194 N   0  0  0  0  0  0  0  0  0  0  0  0
   29.9919   57.1833   80.7695 C   0  0  0  0  0  0  0  0  0  0  0  0
   29.2217   56.7605   81.6314 O   0  0  0  0  0  0  0  0  0  0  0  0
   29.6888   58.5136   80.0741 C   0  0  0  0  0  0  0  0  0  0  0  0
   30.1354   58.4713   78.6616 N   0  0  0  0  0  0  0  0  0  0  0  0
  1  2  2  0
  2  3  1  0
  3  4  1  6
  4  5  1  0
  5  6  1  0
  3  7  1  0
  6  7  1  0
  7  8  1  0
  8  9  2  0
  8 10  1  0
  2 11  1  0
 10 11  1  0
M  END
