1W1P_GIO_B_1501
     RDKit          3D

 21 22  0  0  0  0  0  0  0  0999 V2000
   25.3951   56.2069   82.8285 O   0  0  0  0  0  0  0  0  0  0  0  0
   26.5344   56.1590   82.2916 C   0  0  0  0  0  0  0  0  0  0  0  0
   27.5741   55.1897   82.7910 C   0  0  2  0  0  0  0  0  0  0  0  0
   27.5930   55.0338   84.3114 C   0  0  1  0  0  0  0  0  0  0  0  0
   29.0671   54.8480   84.6709 C   0  0  2  0  0  0  0  0  0  0  0  0
   29.8518   55.5157   83.5461 C   0  0  2  0  0  0  0  0  0  0  0  0
   28.9090   55.6541   82.4509 N   0  0  0  0  0  0  0  0  0  0  0  0
   29.1814   56.3988   81.2564 C   0  0  0  0  0  0  0  0  0  0  0  0
   30.3654   56.6977   80.9452 O   0  0  0  0  0  0  0  0  0  0  0  0
   28.0436   56.8034   80.3677 C   0  0  1  0  0  0  0  0  0  0  0  0
   26.8216   56.9825   81.1530 N   0  0  0  0  0  0  0  0  0  0  0  0
   27.4046   54.2019   82.3095 H   0  0  0  0  0  0  0  0  0  0  0  0
   27.2173   55.9562   84.8084 H   0  0  0  0  0  0  0  0  0  0  0  0
   26.9826   54.1644   84.6386 H   0  0  0  0  0  0  0  0  0  0  0  0
   29.3072   53.7622   84.6995 H   0  0  0  0  0  0  0  0  0  0  0  0
   29.3040   55.3017   85.6578 H   0  0  0  0  0  0  0  0  0  0  0  0
   30.7165   54.8904   83.2361 H   0  0  0  0  0  0  0  0  0  0  0  0
   30.2037   56.5206   83.8666 H   0  0  0  0  0  0  0  0  0  0  0  0
   28.2897   57.7532   79.8461 H   0  0  0  0  0  0  0  0  0  0  0  0
   27.8776   56.0106   79.6085 H   0  0  0  0  0  0  0  0  0  0  0  0
   26.0896   57.6406   80.8026 H   0  0  0  0  0  0  0  0  0  0  0  0
  1  2  2  0
  2  3  1  0
  3  4  1  0
  4  5  1  0
  5  6  1  0
  3  7  1  0
  6  7  1  0
  7  8  1  0
  8  9  2  0
  8 10  1  0
  2 11  1  0
 10 11  1  0
  3 12  1  6
  4 13  1  1
  4 14  1  0
  5 15  1  1
  5 16  1  0
  6 17  1  6
  6 18  1  0
 10 19  1  6
 10 20  1  0
 11 21  1  0
M  END
