@<TRIPOS>MOLECULE
1TOW_CRZ_A_501
 34 36 0 0 0
SMALL
GASTEIGER

@<TRIPOS>ATOM
      1 O          -1.3820    1.9365   -0.4568 O.3     1  UNL1       -0.4806
      2 C          -1.5007    1.4224    0.8313 C.2     1  UNL1        0.3048
      3 O          -2.4757    0.6784    1.1203 O.2     1  UNL1       -0.2510
      4 C          -0.5052    1.7952    1.8903 C.3     1  UNL1        0.0464
      5 C           0.9491    1.7166    1.3957 C.3     1  UNL1       -0.0249
      6 C           1.5103    0.2858    1.3474 C.3     1  UNL1        0.0244
      7 N           0.8249   -0.5368    0.3434 N.ar    1  UNL1       -0.3398
      8 C           0.9712   -0.4721   -1.0048 C.ar    1  UNL1        0.0501
      9 C           1.8226    0.3604   -1.7386 C.ar    1  UNL1       -0.0376
     10 C           0.1360   -1.3692   -1.6407 C.ar    1  UNL1        0.0076
     11 C           0.0915   -1.4867   -3.0286 C.ar    1  UNL1       -0.0520
     12 C           0.9377   -0.6556   -3.7828 C.ar    1  UNL1       -0.0611
     13 C           1.7986    0.2616   -3.1417 C.ar    1  UNL1       -0.0598
     14 C          -0.5574   -2.0233   -0.6488 C.ar    1  UNL1        0.0076
     15 C          -0.1151   -1.4965    0.5499 C.ar    1  UNL1        0.0501
     16 C          -0.6450   -1.9424    1.7667 C.ar    1  UNL1       -0.0376
     17 C          -1.5358   -3.0136   -0.7097 C.ar    1  UNL1       -0.0520
     18 C          -2.0757   -3.4754    0.5026 C.ar    1  UNL1       -0.0611
     19 C          -1.6337   -2.9425    1.7326 C.ar    1  UNL1       -0.0598
     20 H          -2.0510    1.6925   -1.1772 H       1  UNL1        0.2951
     21 H          -0.7189    2.8404    2.1998 H       1  UNL1        0.0378
     22 H          -0.6357    1.1500    2.7865 H       1  UNL1        0.0378
     23 H           1.5800    2.2974    2.1031 H       1  UNL1        0.0288
     24 H           1.0523    2.2078    0.4048 H       1  UNL1        0.0288
     25 H           2.5919    0.3344    1.0975 H       1  UNL1        0.0492
     26 H           1.4471   -0.1789    2.3526 H       1  UNL1        0.0492
     27 H           2.4862    1.0624   -1.2522 H       1  UNL1        0.0638
     28 H          -0.5710   -2.1920   -3.5132 H       1  UNL1        0.0624
     29 H           0.9297   -0.7200   -4.8631 H       1  UNL1        0.0618
     30 H           2.4461    0.8942   -3.7347 H       1  UNL1        0.0618
     31 H          -0.3234   -1.5346    2.7143 H       1  UNL1        0.0638
     32 H          -1.8738   -3.4139   -1.6567 H       1  UNL1        0.0624
     33 H          -2.8384   -4.2431    0.4927 H       1  UNL1        0.0618
     34 H          -2.0620   -3.3043    2.6583 H       1  UNL1        0.0618
@<TRIPOS>BOND
     1     1     2    1
     2     2     3    2
     3     2     4    1
     4     4     5    1
     5     5     6    1
     6     6     7    1
     7     7     8   ar
     8     8     9   ar
     9     8    10   ar
    10    10    11   ar
    11    11    12   ar
    12     9    13   ar
    13    12    13   ar
    14    10    14   ar
    15     7    15   ar
    16    14    15   ar
    17    15    16   ar
    18    14    17   ar
    19    17    18   ar
    20    16    19   ar
    21    18    19   ar
    22     1    20    1
    23     4    21    1
    24     4    22    1
    25     5    23    1
    26     5    24    1
    27     6    25    1
    28     6    26    1
    29     9    27    1
    30    11    28    1
    31    12    29    1
    32    13    30    1
    33    16    31    1
    34    17    32    1
    35    18    33    1
    36    19    34    1
