@<TRIPOS>MOLECULE
2BM2_PM2_B_3211
 59 62 0 0 0
SMALL
GASTEIGER

@<TRIPOS>ATOM
      1 C          44.0410  110.8130   82.1470 C.ar    1  UNL1       -0.0439
      2 C          44.2610  111.3110   80.8040 C.ar    1  UNL1       -0.0539
      3 C          45.2100  110.5560   82.9790 C.ar    1  UNL1       -0.0583
      4 C          45.6100  111.5430   80.3020 C.ar    1  UNL1       -0.0335
      5 C          46.5360  110.7870   82.4820 C.ar    1  UNL1       -0.0612
      6 C          46.7450  111.2750   81.1590 C.ar    1  UNL1       -0.0573
      7 C          45.8300  112.0660   78.9070 C.3     1  UNL1        0.0186
      8 N          45.1380  111.2800   77.8400 N.3     1  UNL1       -0.3261
      9 C          42.0260  111.7750   83.5410 C.3     1  UNL1       -0.0303
     10 C          40.6110  111.3840   84.1200 C.3     1  UNL1        0.0155
     11 C          38.5650  111.7500   82.5500 C.2     1  UNL1        0.2481
     12 O          37.9530  111.4380   81.5380 O.2     1  UNL1       -0.2699
     13 C          42.6420  110.5510   82.7440 C.3     1  UNL1       -0.0130
     14 N          39.7000  111.0510   82.9940 N.am    1  UNL1       -0.2974
     15 C          40.2150  109.8540   82.2560 C.3     1  UNL1        0.0155
     16 C          41.6090  110.0850   81.6430 C.3     1  UNL1       -0.0303
     17 C          37.9590  112.9180   83.2770 C.ar    1  UNL1        0.0552
     18 C          37.6670  114.1550   82.6070 C.ar    1  UNL1       -0.0435
     19 C          37.6220  112.8260   84.6570 C.ar    1  UNL1        0.0397
     20 C          37.0480  115.2260   83.3700 C.ar    1  UNL1       -0.0282
     21 N          37.0540  113.8200   85.3650 N.ar    1  UNL1       -0.2622
     22 C          36.6890  116.5330   82.7400 C.3     1  UNL1       -0.0222
     23 C          36.7700  114.9800   84.7460 C.ar    1  UNL1        0.0308
     24 C          35.1840  116.7610   82.6530 C.3     1  UNL1       -0.0236
     25 C          34.3910  115.8010   81.8010 C.ar    1  UNL1       -0.0470
     26 C          34.2890  115.9720   80.3780 C.ar    1  UNL1       -0.0586
     27 C          33.7020  114.6730   82.4240 C.ar    1  UNL1       -0.0586
     28 C          33.5110  115.0380   79.5610 C.ar    1  UNL1       -0.0615
     29 C          32.9400  113.7600   81.6260 C.ar    1  UNL1       -0.0615
     30 C          32.8370  113.9310   80.1880 C.ar    1  UNL1       -0.0617
     31 H          43.4512  111.5042   80.1942 H       1  UNL1        0.0623
     32 H          45.0819  110.2025   83.9401 H       1  UNL1        0.0620
     33 H          47.3483  110.5976   83.0897 H       1  UNL1        0.0618
     34 H          47.7037  111.4368   80.8130 H       1  UNL1        0.0621
     35 H          46.8808  112.0521   78.7055 H       1  UNL1        0.0471
     36 H          45.4149  113.0518   78.8799 H       1  UNL1        0.0471
     37 H          45.5033  110.3277   77.8282 H       1  UNL1        0.1185
     38 H          45.3025  111.7185   76.9339 H       1  UNL1        0.1185
     39 H          42.6787  112.0375   84.3472 H       1  UNL1        0.0286
     40 H          41.9165  112.6072   82.8774 H       1  UNL1        0.0286
     41 H          40.2104  112.2074   84.6735 H       1  UNL1        0.0465
     42 H          40.7078  110.5378   84.7677 H       1  UNL1        0.0465
     43 H          42.8073  109.7644   83.4502 H       1  UNL1        0.0350
     44 H          39.5303  109.6171   81.4686 H       1  UNL1        0.0465
     45 H          40.3016  109.0536   82.9609 H       1  UNL1        0.0465
     46 H          41.9537  109.1722   81.2039 H       1  UNL1        0.0286
     47 H          41.5322  110.8524   80.9013 H       1  UNL1        0.0286
     48 H          37.8915  114.2801   81.6075 H       1  UNL1        0.0629
     49 H          37.8263  111.9405   85.1460 H       1  UNL1        0.0837
     50 H          37.0949  116.5570   81.7503 H       1  UNL1        0.0317
     51 H          37.0940  117.3071   83.3577 H       1  UNL1        0.0317
     52 H          36.3272  115.7320   85.2969 H       1  UNL1        0.0832
     53 H          35.0292  117.7441   82.2600 H       1  UNL1        0.0316
     54 H          34.8233  116.6097   83.6490 H       1  UNL1        0.0316
     55 H          34.7709  116.7643   79.9251 H       1  UNL1        0.0620
     56 H          33.7648  114.5335   83.4446 H       1  UNL1        0.0620
     57 H          33.4462  115.1729   78.5399 H       1  UNL1        0.0618
     58 H          32.4570  112.9689   82.0798 H       1  UNL1        0.0618
     59 H          32.2868  113.2665   79.6216 H       1  UNL1        0.0618
@<TRIPOS>BOND
     1     1     2   ar
     2     1     3   ar
     3     2     4   ar
     4     3     5   ar
     5     4     6   ar
     6     5     6   ar
     7     4     7    1
     8     7     8    1
     9     9    10    1
    10    11    12    2
    11     1    13    1
    12     9    13    1
    13    10    14    1
    14    11    14   am
    15    14    15    1
    16    13    16    1
    17    15    16    1
    18    11    17    1
    19    17    18   ar
    20    17    19   ar
    21    18    20   ar
    22    19    21   ar
    23    20    22    1
    24    20    23   ar
    25    21    23   ar
    26    22    24    1
    27    24    25    1
    28    25    26   ar
    29    25    27   ar
    30    26    28   ar
    31    27    29   ar
    32    28    30   ar
    33    29    30   ar
    34     2    31    1
    35     3    32    1
    36     5    33    1
    37     6    34    1
    38     7    35    1
    39     7    36    1
    40     8    37    1
    41     8    38    1
    42     9    39    1
    43     9    40    1
    44    10    41    1
    45    10    42    1
    46    13    43    1
    47    15    44    1
    48    15    45    1
    49    16    46    1
    50    16    47    1
    51    18    48    1
    52    19    49    1
    53    22    50    1
    54    22    51    1
    55    23    52    1
    56    24    53    1
    57    24    54    1
    58    26    55    1
    59    27    56    1
    60    28    57    1
    61    29    58    1
    62    30    59    1
