@<TRIPOS>MOLECULE
2BM2_PM2_B_3211
 59 62 0 0 0
SMALL
GASTEIGER

@<TRIPOS>ATOM
      1 C          -2.8604   -0.3532    2.5597 C.ar    1  UNL1       -0.0439
      2 C          -2.0376   -1.0501    3.4670 C.ar    1  UNL1       -0.0539
      3 C          -3.9807    0.3364    3.0651 C.ar    1  UNL1       -0.0583
      4 C          -2.3223   -1.0557    4.8425 C.ar    1  UNL1       -0.0335
      5 C          -4.2596    0.3420    4.4342 C.ar    1  UNL1       -0.0612
      6 C          -3.4305   -0.3447    5.3215 C.ar    1  UNL1       -0.0573
      7 C          -1.4088   -1.7667    5.8038 C.3     1  UNL1        0.0186
      8 N          -0.4020   -0.8410    6.3087 N.3     1  UNL1       -0.3261
      9 C          -1.2091    0.2277    0.6608 C.3     1  UNL1       -0.0303
     10 C          -0.0793   -0.8112    0.5921 C.3     1  UNL1        0.0155
     11 C          -0.0592   -2.3121   -1.4364 C.2     1  UNL1        0.2481
     12 O          -0.8793   -2.6356   -2.3387 O.2     1  UNL1       -0.2699
     13 C          -2.5968   -0.3480    1.0553 C.3     1  UNL1       -0.0130
     14 N          -0.5389   -2.0130   -0.1111 N.am    1  UNL1       -0.2974
     15 C          -1.7325   -2.6805    0.4092 C.3     1  UNL1        0.0155
     16 C          -2.9139   -1.7078    0.3875 C.3     1  UNL1       -0.0303
     17 C           1.3796   -2.2292   -1.7630 C.ar    1  UNL1        0.0552
     18 C           1.7949   -1.8123   -3.0344 C.ar    1  UNL1       -0.0435
     19 C           2.3562   -2.5322   -0.8015 C.ar    1  UNL1        0.0397
     20 C           3.1599   -1.6543   -3.3159 C.ar    1  UNL1       -0.0282
     21 N           3.6765   -2.3955   -1.0990 N.ar    1  UNL1       -0.2622
     22 C           3.6007   -1.0309   -4.6161 C.3     1  UNL1       -0.0222
     23 C           4.0954   -1.9608   -2.3169 C.ar    1  UNL1        0.0308
     24 C           3.7636    0.4921   -4.4811 C.3     1  UNL1       -0.0236
     25 C           2.4671    1.1630   -4.0954 C.ar    1  UNL1       -0.0470
     26 C           2.1957    1.4622   -2.7480 C.ar    1  UNL1       -0.0586
     27 C           1.4796    1.4045   -5.0655 C.ar    1  UNL1       -0.0586
     28 C           0.9556    1.9928   -2.3793 C.ar    1  UNL1       -0.0615
     29 C           0.2429    1.9417   -4.6932 C.ar    1  UNL1       -0.0615
     30 C          -0.0199    2.2325   -3.3510 C.ar    1  UNL1       -0.0617
     31 H          -1.1780   -1.5960    3.1242 H       1  UNL1        0.0623
     32 H          -4.6448    0.8750    2.3999 H       1  UNL1        0.0620
     33 H          -5.1199    0.8829    4.8082 H       1  UNL1        0.0618
     34 H          -3.6536   -0.3233    6.3816 H       1  UNL1        0.0621
     35 H          -2.0005   -2.1691    6.6555 H       1  UNL1        0.0471
     36 H          -0.9149   -2.6310    5.3064 H       1  UNL1        0.0471
     37 H           0.1604   -1.3451    7.0331 H       1  UNL1        0.1185
     38 H           0.2558   -0.6150    5.5262 H       1  UNL1        0.1185
     39 H          -0.9194    1.0446    1.3570 H       1  UNL1        0.0286
     40 H          -1.2992    0.6845   -0.3510 H       1  UNL1        0.0286
     41 H           0.2777   -1.0822    1.6036 H       1  UNL1        0.0465
     42 H           0.7875   -0.3480    0.0721 H       1  UNL1        0.0465
     43 H          -3.3283    0.3645    0.6080 H       1  UNL1        0.0350
     44 H          -1.9800   -3.5791   -0.1962 H       1  UNL1        0.0465
     45 H          -1.5429   -3.0382    1.4407 H       1  UNL1        0.0465
     46 H          -3.7964   -2.1807    0.8727 H       1  UNL1        0.0286
     47 H          -3.1847   -1.5254   -0.6771 H       1  UNL1        0.0286
     48 H           1.0576   -1.5481   -3.7844 H       1  UNL1        0.0629
     49 H           2.0704   -2.8725    0.1859 H       1  UNL1        0.0837
     50 H           2.8673   -1.2594   -5.4214 H       1  UNL1        0.0317
     51 H           4.5723   -1.4722   -4.9302 H       1  UNL1        0.0317
     52 H           5.1553   -1.8337   -2.4992 H       1  UNL1        0.0832
     53 H           4.5540    0.7168   -3.7305 H       1  UNL1        0.0316
     54 H           4.1158    0.9036   -5.4520 H       1  UNL1        0.0316
     55 H           2.9344    1.2603   -1.9815 H       1  UNL1        0.0620
     56 H           1.6631    1.1624   -6.1051 H       1  UNL1        0.0620
     57 H           0.7484    2.2096   -1.3389 H       1  UNL1        0.0618
     58 H          -0.5158    2.1229   -5.4437 H       1  UNL1        0.0618
     59 H          -0.9809    2.6388   -3.0637 H       1  UNL1        0.0618
@<TRIPOS>BOND
     1     1     2   ar
     2     1     3   ar
     3     2     4   ar
     4     3     5   ar
     5     4     6   ar
     6     5     6   ar
     7     4     7    1
     8     7     8    1
     9     9    10    1
    10    11    12    2
    11     1    13    1
    12     9    13    1
    13    10    14    1
    14    11    14   am
    15    14    15    1
    16    13    16    1
    17    15    16    1
    18    11    17    1
    19    17    18   ar
    20    17    19   ar
    21    18    20   ar
    22    19    21   ar
    23    20    22    1
    24    20    23   ar
    25    21    23   ar
    26    22    24    1
    27    24    25    1
    28    25    26   ar
    29    25    27   ar
    30    26    28   ar
    31    27    29   ar
    32    28    30   ar
    33    29    30   ar
    34     2    31    1
    35     3    32    1
    36     5    33    1
    37     6    34    1
    38     7    35    1
    39     7    36    1
    40     8    37    1
    41     8    38    1
    42     9    39    1
    43     9    40    1
    44    10    41    1
    45    10    42    1
    46    13    43    1
    47    15    44    1
    48    15    45    1
    49    16    46    1
    50    16    47    1
    51    18    48    1
    52    19    49    1
    53    22    50    1
    54    22    51    1
    55    23    52    1
    56    24    53    1
    57    24    54    1
    58    26    55    1
    59    27    56    1
    60    28    57    1
    61    29    58    1
    62    30    59    1
