8FLN_Y7W_A_701
     RDKit          3D

 34 36  0  0  0  0  0  0  0  0999 V2000
  -22.2108    4.6718    3.0574 N   0  0  0  0  0  0  0  0  0  0  0  0
  -22.7345    3.0171    1.2005 C   0  0  0  0  0  0  0  0  0  0  0  0
  -23.9374    3.4472    0.7014 C   0  0  0  0  0  0  0  0  0  0  0  0
  -24.7249    4.6011    1.0844 C   0  0  0  0  0  0  0  0  0  0  0  0
  -24.0740    5.7501    1.5274 C   0  0  0  0  0  0  0  0  0  0  0  0
  -24.7714    6.8684    1.9270 C   0  0  0  0  0  0  0  0  0  0  0  0
  -26.9621    8.0654    2.3125 C   0  0  0  0  0  0  0  0  0  0  0  0
  -24.2604   10.2369    4.0699 C   0  0  0  0  0  0  0  0  0  0  0  0
  -22.4583   10.9608    5.5311 C   0  0  0  0  0  0  0  0  0  0  0  0
  -22.3206   12.1410    4.8527 C   0  0  0  0  0  0  0  0  0  0  0  0
  -24.7405   12.9070    1.5623 C   0  0  0  0  0  0  0  0  0  0  0  0
  -26.0986    4.6511    1.0712 C   0  0  0  0  0  0  0  0  0  0  0  0
  -24.6725   -0.3935   -1.1083 C   0  0  0  0  0  0  0  0  0  0  0  0
  -20.7848    3.0029    2.4443 O   0  0  0  0  0  0  0  0  0  0  0  0
  -21.8948    3.5630    2.2420 C   0  0  0  0  0  0  0  0  0  0  0  0
  -26.1432    6.9223    1.9144 C   0  0  0  0  0  0  0  0  0  0  0  0
  -26.1557    9.2172    2.7011 N   0  0  0  0  0  0  0  0  0  0  0  0
  -25.2170    9.2159    3.7416 C   0  0  0  0  0  0  0  0  0  0  0  0
  -23.4012   10.0313    5.1533 C   0  0  0  0  0  0  0  0  0  0  0  0
  -21.6487   10.7273    6.5797 F   0  0  0  0  0  0  0  0  0  0  0  0
  -23.1483   12.3710    3.7865 C   0  0  0  0  0  0  0  0  0  0  0  0
  -24.0927   11.4310    3.4146 C   0  0  0  0  0  0  0  0  0  0  0  0
  -24.8853   11.7415    2.3302 O   0  0  0  0  0  0  0  0  0  0  0  0
  -25.2184    8.1740    4.4859 O   0  0  0  0  0  0  0  0  0  0  0  0
  -26.8013    5.7796    1.4740 C   0  0  0  0  0  0  0  0  0  0  0  0
  -24.2907    2.5766   -0.2369 N   0  0  0  0  0  0  0  0  0  0  0  0
  -23.4080    1.6045   -0.3939 N   0  0  0  0  0  0  0  0  0  0  0  0
  -23.5057    0.5226   -1.3236 C   0  0  2  0  0  0  0  0  0  0  0  0
  -23.4567    0.9862   -2.7835 C   0  0  1  0  0  0  0  0  0  0  0  0
  -24.6550    1.6516   -3.0776 F   0  0  0  0  0  0  0  0  0  0  0  0
  -22.4751    1.9441   -2.9492 F   0  0  0  0  0  0  0  0  0  0  0  0
  -23.3520   -0.0677   -3.6391 F   0  0  0  0  0  0  0  0  0  0  0  0
  -22.4340    1.8665    0.4945 C   0  0  0  0  0  0  0  0  0  0  0  0
  -21.2844    1.0276    0.6280 N   0  0  0  0  0  0  0  0  0  0  0  0
  2  3  1  0
  3  4  1  0
  4  5  2  0
  5  6  1  0
  9 10  2  0
  4 12  1  0
  1 15  1  0
  2 15  1  0
 14 15  2  0
  7 16  1  0
  6 16  2  0
  7 17  1  0
  8 18  1  0
 17 18  1  0
  9 19  1  0
  8 19  2  0
  9 20  1  0
 10 21  1  0
 21 22  2  0
  8 22  1  0
 22 23  1  0
 11 23  1  0
 18 24  2  0
 12 25  2  0
 16 25  1  0
  3 26  2  0
 26 27  1  0
 28 13  1  6
 27 28  1  0
 28 29  1  0
 29 30  1  6
 29 31  1  0
 29 32  1  0
 27 33  1  0
  2 33  2  0
 33 34  1  0
M  END
$$$$
