1HVY_D16_D_417
     RDKit          3D

 32 34  0  0  0  0  0  0  0  0999 V2000
   66.9780   39.8920   23.3300 N   0  0  0  0  0  0  0  0  0  0  0  0
   67.3880   39.2730   24.4780 C   0  0  0  0  0  0  0  0  0  0  0  0
   67.7840   37.8630   24.4860 C   0  0  0  0  0  0  0  0  0  0  0  0
   67.4330   39.9620   25.6440 N   0  0  0  0  0  0  0  0  0  0  0  0
   67.0840   41.2730   25.7090 C   0  0  0  0  0  0  0  0  0  0  0  0
   67.1330   41.8990   26.9260 O   0  0  0  0  0  0  0  0  0  0  0  0
   66.6680   41.9700   24.5500 C   0  0  0  0  0  0  0  0  0  0  0  0
   66.3300   43.3470   24.5560 C   0  0  0  0  0  0  0  0  0  0  0  0
   65.9320   44.0100   23.3390 C   0  0  0  0  0  0  0  0  0  0  0  0
   65.8690   43.2550   22.1270 C   0  0  0  0  0  0  0  0  0  0  0  0
   66.2110   41.8680   22.1190 C   0  0  0  0  0  0  0  0  0  0  0  0
   66.6210   41.2130   23.3270 C   0  0  0  0  0  0  0  0  0  0  0  0
   65.5960   45.4730   23.2820 C   0  0  0  0  0  0  0  0  0  0  0  0
   65.7090   46.2410   24.5570 N   0  0  0  0  0  0  0  0  0  0  0  0
   69.3670   46.7260   25.8120 C   0  0  0  0  0  0  0  0  0  0  0  0
   68.4770   46.0440   24.5450 S   0  0  0  0  0  0  0  0  0  0  0  0
   66.9250   46.5230   25.1630 C   0  0  0  0  0  0  0  0  0  0  0  0
   67.0930   47.2120   26.3510 C   0  0  0  0  0  0  0  0  0  0  0  0
   68.5440   47.3340   26.7360 C   0  0  0  0  0  0  0  0  0  0  0  0
   70.8160   46.6910   25.9020 C   0  0  0  0  0  0  0  0  0  0  0  0
   71.4640   46.1100   25.0170 O   0  0  0  0  0  0  0  0  0  0  0  0
   71.4040   47.2920   26.9430 N   0  0  0  0  0  0  0  0  0  0  0  0
   72.8700   47.3480   27.1840 C   0  0  1  0  0  0  0  0  0  0  0  0
   73.5690   48.6320   26.7310 C   0  0  0  0  0  0  0  0  0  0  0  0
   73.1130   49.4580   25.5580 C   0  0  0  0  0  0  0  0  0  0  0  0
   74.2150   50.4540   25.1820 C   0  0  0  0  0  0  0  0  0  0  0  0
   74.8320   51.0630   26.0680 O   0  0  0  0  0  0  0  0  0  0  0  0
   74.4740   50.6460   23.9890 O   0  0  0  0  0  0  0  0  0  0  0  0
   73.0750   47.2200   28.6850 C   0  0  0  0  0  0  0  0  0  0  0  0
   72.1410   47.5200   29.4490 O   0  0  0  0  0  0  0  0  0  0  0  0
   74.1640   46.8260   29.1040 O   0  0  0  0  0  0  0  0  0  0  0  0
   64.4420   46.6850   25.1540 C   0  0  0  0  0  0  0  0  0  0  0  0
  1  2  1  0
  2  3  1  0
  2  4  2  0
  4  5  1  0
  5  6  2  0
  5  7  1  0
  7  8  1  0
  8  9  2  0
  9 10  1  0
 10 11  2  0
  1 12  1  0
  7 12  2  0
 11 12  1  0
  9 13  1  0
 13 14  1  0
 15 16  1  0
 14 17  1  0
 16 17  1  0
 17 18  2  0
 15 19  2  0
 18 19  1  0
 15 20  1  0
 20 21  2  0
 20 22  1  0
 22 23  1  0
 23 24  1  1
 24 25  1  0
 25 26  1  0
 26 27  2  0
 26 28  1  0
 23 29  1  0
 29 30  2  0
 29 31  1  0
 14 32  1  0
M  END
$$$$
1HVY_D16_A_414
     RDKit          3D

 32 34  0  0  0  0  0  0  0  0999 V2000
   -0.3080    6.6200   19.3640 N   0  0  0  0  0  0  0  0  0  0  0  0
   -1.6030    6.6600   18.9260 C   0  0  0  0  0  0  0  0  0  0  0  0
   -2.6410    5.8470   19.5660 C   0  0  0  0  0  0  0  0  0  0  0  0
   -1.9470    7.4590   17.8800 N   0  0  0  0  0  0  0  0  0  0  0  0
   -1.0230    8.2410   17.2540 C   0  0  0  0  0  0  0  0  0  0  0  0
   -1.4230    9.0040   16.1900 O   0  0  0  0  0  0  0  0  0  0  0  0
    0.3250    8.2490   17.6810 C   0  0  0  0  0  0  0  0  0  0  0  0
    1.3180    9.0650   17.0900 C   0  0  0  0  0  0  0  0  0  0  0  0
    2.6760    9.0370   17.5790 C   0  0  0  0  0  0  0  0  0  0  0  0
    3.0090    8.1690   18.6550 C   0  0  0  0  0  0  0  0  0  0  0  0
    2.0100    7.3490   19.2550 C   0  0  0  0  0  0  0  0  0  0  0  0
    0.6580    7.3820   18.7820 C   0  0  0  0  0  0  0  0  0  0  0  0
    3.7660    9.9050   17.0090 C   0  0  0  0  0  0  0  0  0  0  0  0
    3.3900   10.8370   15.9090 N   0  0  0  0  0  0  0  0  0  0  0  0
    1.0690   13.7040   17.0850 C   0  0  0  0  0  0  0  0  0  0  0  0
    1.8900   12.3420   17.6620 S   0  0  0  0  0  0  0  0  0  0  0  0
    2.5740   11.9240   16.1210 C   0  0  0  0  0  0  0  0  0  0  0  0
    2.1710   12.8340   15.1590 C   0  0  0  0  0  0  0  0  0  0  0  0
    1.2730   13.8930   15.7400 C   0  0  0  0  0  0  0  0  0  0  0  0
    0.2530   14.5550   17.9120 C   0  0  0  0  0  0  0  0  0  0  0  0
    0.1360   14.2850   19.1140 O   0  0  0  0  0  0  0  0  0  0  0  0
   -0.3490   15.6000   17.3470 N   0  0  0  0  0  0  0  0  0  0  0  0
   -1.2180   16.5590   18.0520 C   0  0  1  0  0  0  0  0  0  0  0  0
   -0.5640   17.8810   18.3990 C   0  0  0  0  0  0  0  0  0  0  0  0
   -0.6590   18.4840   19.7620 C   0  0  0  0  0  0  0  0  0  0  0  0
    0.4540   19.5100   19.8900 C   0  0  0  0  0  0  0  0  0  0  0  0
    1.4720   19.2220   20.5240 O   0  0  0  0  0  0  0  0  0  0  0  0
    0.3280   20.6200   19.3580 O   0  0  0  0  0  0  0  0  0  0  0  0
   -2.3990   16.8470   17.1360 C   0  0  0  0  0  0  0  0  0  0  0  0
   -2.2490   16.7750   15.8980 O   0  0  0  0  0  0  0  0  0  0  0  0
   -3.4760   17.1360   17.6490 O   0  0  0  0  0  0  0  0  0  0  0  0
    3.9310   10.5450   14.5740 C   0  0  0  0  0  0  0  0  0  0  0  0
  1  2  1  0
  2  3  1  0
  2  4  2  0
  4  5  1  0
  5  6  2  0
  5  7  1  0
  7  8  1  0
  8  9  2  0
  9 10  1  0
 10 11  2  0
  1 12  1  0
  7 12  2  0
 11 12  1  0
  9 13  1  0
 13 14  1  0
 15 16  1  0
 14 17  1  0
 16 17  1  0
 17 18  2  0
 15 19  2  0
 18 19  1  0
 15 20  1  0
 20 21  2  0
 20 22  1  0
 22 23  1  0
 23 24  1  6
 24 25  1  0
 25 26  1  0
 26 27  2  0
 26 28  1  0
 23 29  1  0
 29 30  2  0
 29 31  1  0
 14 32  1  0
M  END
$$$$
1HVY_D16_B_415
     RDKit          3D

 32 34  0  0  0  0  0  0  0  0999 V2000
    7.9140   -9.5210  -16.2400 N   0  0  0  0  0  0  0  0  0  0  0  0
    6.9710   -8.6500  -16.7190 C   0  0  0  0  0  0  0  0  0  0  0  0
    7.3450   -7.5230  -17.5690 C   0  0  0  0  0  0  0  0  0  0  0  0
    5.6550   -8.8230  -16.4010 N   0  0  0  0  0  0  0  0  0  0  0  0
    5.2390   -9.8540  -15.6180 C   0  0  0  0  0  0  0  0  0  0  0  0
    3.9000   -9.9560  -15.3170 O   0  0  0  0  0  0  0  0  0  0  0  0
    6.1670  -10.7940  -15.1090 C   0  0  0  0  0  0  0  0  0  0  0  0
    5.7820  -11.9100  -14.3110 C   0  0  0  0  0  0  0  0  0  0  0  0
    6.7750  -12.8340  -13.8320 C   0  0  0  0  0  0  0  0  0  0  0  0
    8.1500  -12.6070  -14.1620 C   0  0  0  0  0  0  0  0  0  0  0  0
    8.5380  -11.4970  -14.9620 C   0  0  0  0  0  0  0  0  0  0  0  0
    7.5570  -10.5800  -15.4520 C   0  0  0  0  0  0  0  0  0  0  0  0
    6.4440  -14.0500  -13.0010 C   0  0  0  0  0  0  0  0  0  0  0  0
    5.0080  -14.3100  -12.6730 N   0  0  0  0  0  0  0  0  0  0  0  0
    2.8570  -15.4280  -15.7030 C   0  0  0  0  0  0  0  0  0  0  0  0
    4.4410  -14.9970  -15.2820 S   0  0  0  0  0  0  0  0  0  0  0  0
    4.0860  -14.7200  -13.6150 C   0  0  0  0  0  0  0  0  0  0  0  0
    2.7450  -14.9590  -13.3760 C   0  0  0  0  0  0  0  0  0  0  0  0
    2.0160  -15.3820  -14.6180 C   0  0  0  0  0  0  0  0  0  0  0  0
    2.4390  -15.7830  -17.0400 C   0  0  0  0  0  0  0  0  0  0  0  0
    3.2760  -15.7900  -17.9570 O   0  0  0  0  0  0  0  0  0  0  0  0
    1.1570  -16.0880  -17.2350 N   0  0  0  0  0  0  0  0  0  0  0  0
    0.5580  -16.4650  -18.5290 C   0  0  1  0  0  0  0  0  0  0  0  0
    0.3820  -17.9600  -18.7510 C   0  0  0  0  0  0  0  0  0  0  0  0
    0.9110  -18.6510  -19.9700 C   0  0  0  0  0  0  0  0  0  0  0  0
    1.2750  -20.0800  -19.5880 C   0  0  0  0  0  0  0  0  0  0  0  0
    2.2770  -20.2940  -18.8920 O   0  0  0  0  0  0  0  0  0  0  0  0
    0.5680  -21.0080  -19.9810 O   0  0  0  0  0  0  0  0  0  0  0  0
   -0.8170  -15.8220  -18.5760 C   0  0  0  0  0  0  0  0  0  0  0  0
   -1.4170  -15.6040  -17.5080 O   0  0  0  0  0  0  0  0  0  0  0  0
   -1.2970  -15.5300  -19.6700 O   0  0  0  0  0  0  0  0  0  0  0  0
    4.6120  -14.1030  -11.2770 C   0  0  0  0  0  0  0  0  0  0  0  0
  1  2  1  0
  2  3  1  0
  2  4  2  0
  4  5  1  0
  5  6  2  0
  5  7  1  0
  7  8  1  0
  8  9  2  0
  9 10  1  0
 10 11  2  0
  1 12  1  0
  7 12  2  0
 11 12  1  0
  9 13  1  0
 13 14  1  0
 15 16  1  0
 14 17  1  0
 16 17  1  0
 17 18  2  0
 15 19  2  0
 18 19  1  0
 15 20  1  0
 20 21  2  0
 20 22  1  0
 22 23  1  0
 23 24  1  1
 24 25  1  0
 25 26  1  0
 26 27  2  0
 26 28  1  0
 23 29  1  0
 29 30  2  0
 29 31  1  0
 14 32  1  0
M  END
$$$$
1HVY_D16_C_416
     RDKit          3D

 32 34  0  0  0  0  0  0  0  0999 V2000
   31.1500   40.8690   40.7760 N   0  0  0  0  0  0  0  0  0  0  0  0
   31.7850   41.0490   41.9630 C   0  0  0  0  0  0  0  0  0  0  0  0
   31.6700   42.3090   42.7060 C   0  0  0  0  0  0  0  0  0  0  0  0
   32.5510   40.0570   42.4820 N   0  0  0  0  0  0  0  0  0  0  0  0
   32.6960   38.8650   41.8430 C   0  0  0  0  0  0  0  0  0  0  0  0
   33.5020   37.9320   42.4180 O   0  0  0  0  0  0  0  0  0  0  0  0
   32.0440   38.6160   40.6080 C   0  0  0  0  0  0  0  0  0  0  0  0
   32.1300   37.3810   39.9020 C   0  0  0  0  0  0  0  0  0  0  0  0
   31.4200   37.2110   38.6470 C   0  0  0  0  0  0  0  0  0  0  0  0
   30.6500   38.2930   38.1300 C   0  0  0  0  0  0  0  0  0  0  0  0
   30.5640   39.5210   38.8400 C   0  0  0  0  0  0  0  0  0  0  0  0
   31.2490   39.6970   40.0830 C   0  0  0  0  0  0  0  0  0  0  0  0
   31.4270   35.9340   37.8500 C   0  0  0  0  0  0  0  0  0  0  0  0
   32.1860   34.7790   38.4010 N   0  0  0  0  0  0  0  0  0  0  0  0
   30.5990   33.3220   41.6290 C   0  0  0  0  0  0  0  0  0  0  0  0
   30.3630   34.5390   40.4640 S   0  0  0  0  0  0  0  0  0  0  0  0
   31.7790   34.1230   39.5410 C   0  0  0  0  0  0  0  0  0  0  0  0
   32.4290   33.0550   40.1300 C   0  0  0  0  0  0  0  0  0  0  0  0
   31.7250   32.5820   41.3690 C   0  0  0  0  0  0  0  0  0  0  0  0
   29.7320   33.0890   42.7670 C   0  0  0  0  0  0  0  0  0  0  0  0
   28.7340   33.8070   42.9240 O   0  0  0  0  0  0  0  0  0  0  0  0
   30.0570   32.0990   43.6060 N   0  0  0  0  0  0  0  0  0  0  0  0
   29.3110   31.7050   44.8170 C   0  0  1  0  0  0  0  0  0  0  0  0
   28.5810   30.3710   44.7070 C   0  0  0  0  0  0  0  0  0  0  0  0
   27.1750   30.1770   45.1910 C   0  0  0  0  0  0  0  0  0  0  0  0
   26.2880   29.9230   43.9770 C   0  0  0  0  0  0  0  0  0  0  0  0
   25.9080   30.8710   43.2820 O   0  0  0  0  0  0  0  0  0  0  0  0
   25.9550   28.7710   43.7000 O   0  0  0  0  0  0  0  0  0  0  0  0
   30.3330   31.5860   45.9450 C   0  0  0  0  0  0  0  0  0  0  0  0
   31.5160   31.2900   45.6710 O   0  0  0  0  0  0  0  0  0  0  0  0
   29.9620   31.7920   47.1030 O   0  0  0  0  0  0  0  0  0  0  0  0
   33.3910   34.3650   37.6710 C   0  0  0  0  0  0  0  0  0  0  0  0
  1  2  1  0
  2  3  1  0
  2  4  2  0
  4  5  1  0
  5  6  2  0
  5  7  1  0
  7  8  1  0
  8  9  2  0
  9 10  1  0
 10 11  2  0
  1 12  1  0
  7 12  2  0
 11 12  1  0
  9 13  1  0
 13 14  1  0
 15 16  1  0
 14 17  1  0
 16 17  1  0
 17 18  2  0
 15 19  2  0
 18 19  1  0
 15 20  1  0
 20 21  2  0
 20 22  1  0
 22 23  1  0
 23 24  1  6
 24 25  1  0
 25 26  1  0
 26 27  2  0
 26 28  1  0
 23 29  1  0
 29 30  2  0
 29 31  1  0
 14 32  1  0
M  END
$$$$
