@<TRIPOS>MOLECULE
1HVY_D16_D_417
 54 56 0 0 0
SMALL
GASTEIGER

@<TRIPOS>ATOM
      1 N          66.9780   39.8920   23.3300 N.ar    0  UNK0       -0.3430
      2 C          67.3880   39.2730   24.4780 C.ar    0  UNK0        0.1083
      3 C          67.7840   37.8630   24.4860 C.3     0  UNK0       -0.0063
      4 N          67.4330   39.9620   25.6440 N.ar    0  UNK0       -0.1958
      5 C          67.0840   41.2730   25.7090 C.ar    0  UNK0        0.2809
      6 O          67.1330   41.8990   26.9260 O.2     0  UNK0       -0.2651
      7 C          66.6680   41.9700   24.5500 C.ar    0  UNK0        0.0648
      8 C          66.3300   43.3470   24.5560 C.ar    0  UNK0       -0.0427
      9 C          65.9320   44.0100   23.3390 C.ar    0  UNK0       -0.0293
     10 C          65.8690   43.2550   22.1270 C.ar    0  UNK0       -0.0551
     11 C          66.2110   41.8680   22.1190 C.ar    0  UNK0       -0.0373
     12 C          66.6210   41.2130   23.3270 C.ar    0  UNK0        0.0530
     13 C          65.5960   45.4730   23.2820 C.3     0  UNK0        0.0374
     14 N          65.7090   46.2410   24.5570 N.pl3   0  UNK0       -0.3233
     15 C          69.3670   46.7260   25.8120 C.ar    0  UNK0        0.0756
     16 S          68.4770   46.0440   24.5450 S.2     0  UNK0       -0.0691
     17 C          66.9250   46.5230   25.1630 C.ar    0  UNK0        0.0687
     18 C          67.0930   47.2120   26.3510 C.ar    0  UNK0       -0.0326
     19 C          68.5440   47.3340   26.7360 C.ar    0  UNK0       -0.0407
     20 C          70.8160   46.6910   25.9020 C.2     0  UNK0        0.2514
     21 O          71.4640   46.1100   25.0170 O.2     0  UNK0       -0.2696
     22 N          71.4040   47.2920   26.9430 N.am    1  GLU1       -0.2979
     23 CA         72.8700   47.3480   27.1840 C.3     1  GLU1        0.1210
     24 CB         73.5690   48.6320   26.7310 C.3     1  GLU1       -0.0140
     25 CG         73.1130   49.4580   25.5580 C.3     1  GLU1        0.0470
     26 CD         74.2150   50.4540   25.1820 C.2     1  GLU1        0.3048
     27 OE1        74.8320   51.0630   26.0680 O.2     1  GLU1       -0.2510
     28 OE2        74.4740   50.6460   23.9890 O.3     1  GLU1       -0.4806
     29 C          73.0750   47.2200   28.6850 C.2     1  GLU1        0.3253
     30 O          72.1410   47.5200   29.4490 O.2     1  GLU1       -0.2489
     31 OXT        74.1640   46.8260   29.1040 O.3     1  GLU1       -0.4793
     32 C          64.4420   46.6850   25.1540 C.3     0  UNK0        0.0015
     33 H          66.9389   39.3785   22.4910 H       0  UNK0        0.1670
     34 H          67.6948   37.4619   23.4981 H       0  UNK0        0.0307
     35 H          67.1477   37.3176   25.1512 H       0  UNK0        0.0307
     36 H          68.7989   37.7794   24.8146 H       0  UNK0        0.0307
     37 H          66.3692   43.8794   25.4392 H       0  UNK0        0.0629
     38 H          65.5744   43.7151   21.2515 H       0  UNK0        0.0621
     39 H          66.1627   41.3335   21.2375 H       0  UNK0        0.0638
     40 H          64.5856   45.5598   22.9406 H       0  UNK0        0.0513
     41 H          66.3285   45.9027   22.6311 H       0  UNK0        0.0513
     42 H          66.3147   47.5975   26.9084 H       0  UNK0        0.0642
     43 H          68.8804   47.8132   27.5859 H       0  UNK0        0.0631
     44 H          70.8194   47.7321   27.6016 H       1  GLU1        0.1499
     45 HA         73.3031   46.5608   26.6030 H       1  GLU1        0.0614
     46 HB1        74.5801   48.3545   26.5175 H       1  GLU1        0.0294
     47 HB2        73.3476   49.2884   27.5465 H       1  GLU1        0.0294
     48 HG1        72.2234   49.9914   25.8206 H       1  GLU1        0.0378
     49 HG2        72.9093   48.8173   24.7256 H       1  GLU1        0.0378
     50 HE2        74.0022   50.1809   23.3264 H       1  GLU1        0.2951
     51 HXT        74.8471   46.6081   28.5008 H       1  GLU1        0.2951
     52 H          63.6269   46.3693   24.5368 H       0  UNK0        0.0428
     53 H          64.4386   47.7522   25.2309 H       0  UNK0        0.0428
     54 H          64.3378   46.2568   26.1291 H       0  UNK0        0.0428
@<TRIPOS>BOND
     1     1     2   ar
     2     2     3    1
     3     2     4   ar
     4     4     5   ar
     5     5     6    2
     6     5     7   ar
     7     7     8   ar
     8     8     9   ar
     9     9    10   ar
    10    10    11   ar
    11     1    12   ar
    12     7    12   ar
    13    11    12   ar
    14     9    13    1
    15    13    14    1
    16    15    16   ar
    17    14    17    1
    18    16    17   ar
    19    17    18   ar
    20    15    19   ar
    21    18    19   ar
    22    15    20    1
    23    20    21    2
    24    20    22   am
    25    22    23    1
    26    23    24    1
    27    24    25    1
    28    25    26    1
    29    26    27    2
    30    26    28    1
    31    23    29    1
    32    29    30    2
    33    29    31    1
    34    14    32    1
    35     1    33    1
    36     3    34    1
    37     3    35    1
    38     3    36    1
    39     8    37    1
    40    10    38    1
    41    11    39    1
    42    13    40    1
    43    13    41    1
    44    18    42    1
    45    19    43    1
    46    22    44    1
    47    23    45    1
    48    24    46    1
    49    24    47    1
    50    25    48    1
    51    25    49    1
    52    28    50    1
    53    31    51    1
    54    32    52    1
    55    32    53    1
    56    32    54    1
