
     RDKit          3D

 53 58  0  0  0  0  0  0  0  0999 V2000
   24.2243   23.3041   94.3152 P   0  0  2  0  0  5  0  0  0  0  0  0
   24.5091   24.0560   93.0557 O   0  0  0  0  0  0  0  0  0  0  0  0
   25.4010   22.3089   94.7428 O   0  0  0  0  0  0  0  0  0  0  0  0
   22.9620   22.3171   94.2148 O   0  0  0  0  0  0  0  0  0  0  0  0
   21.7214   22.8135   94.7115 C   0  0  0  0  0  0  0  0  0  0  0  0
   21.3836   22.2705   96.0973 C   0  0  1  0  0  0  0  0  0  0  0  0
   22.2389   21.1640   96.4369 O   0  0  0  0  0  0  0  0  0  0  0  0
   21.5435   23.2357   97.2587 C   0  0  1  0  0  0  0  0  0  0  0  0
   20.5112   24.2109   97.3364 O   0  0  0  0  0  0  0  0  0  0  0  0
   21.4994   22.2771   98.4441 C   0  0  1  0  0  0  0  0  0  0  0  0
   20.1259   21.9837   98.7571 O   0  0  0  0  0  0  0  0  0  0  0  0
   22.2223   21.0340   97.8883 C   0  0  2  0  0  0  0  0  0  0  0  0
   23.5949   20.8447   98.3149 N   0  0  0  0  0  0  0  0  0  0  0  0
   24.7323   21.0420   97.5820 C   0  0  0  0  0  0  0  0  0  0  0  0
   25.8127   20.6261   98.2178 N   0  0  0  0  0  0  0  0  0  0  0  0
   25.3502   20.1622   99.4260 C   0  0  0  0  0  0  0  0  0  0  0  0
   26.0001   19.5641  100.5184 C   0  0  0  0  0  0  0  0  0  0  0  0
   27.3565   19.2668  100.5168 N   0  0  0  0  0  0  0  0  0  0  0  0
   25.2755   19.2561  101.6157 N   0  0  0  0  0  0  0  0  0  0  0  0
   23.9368   19.4780  101.5777 C   0  0  0  0  0  0  0  0  0  0  0  0
   23.1993   20.0054  100.5762 N   0  0  0  0  0  0  0  0  0  0  0  0
   23.9758   20.3237   99.5250 C   0  0  0  0  0  0  0  0  0  0  0  0
   24.3274   24.3975  102.3009 N   0  0  0  0  0  0  0  0  0  0  0  0
   23.2099   25.0875  102.6802 C   0  0  0  0  0  0  0  0  0  0  0  0
   22.0929   24.7371  102.3058 O   0  0  0  0  0  0  0  0  0  0  0  0
   23.3261   26.1430  103.5389 N   0  0  0  0  0  0  0  0  0  0  0  0
   24.2098   26.0709  104.5675 C   0  0  0  0  0  0  0  0  0  0  0  0
   23.9861   26.4775  105.6950 O   0  0  0  0  0  0  0  0  0  0  0  0
   25.4694   25.3401  104.2030 C   0  0  0  0  0  0  0  0  0  0  0  0
   26.5432   25.5082  104.9113 N   0  0  0  0  0  0  0  0  0  0  0  0
   27.6994   24.8057  104.5240 C   0  0  0  0  0  0  0  0  0  0  0  0
   28.8574   25.0427  105.2747 C   0  0  0  0  0  0  0  0  0  0  0  0
   30.0659   24.3881  104.9942 C   0  0  0  0  0  0  0  0  0  0  0  0
   31.2787   24.6872  105.8394 C   0  0  0  0  0  0  0  0  0  0  0  0
   30.1075   23.4686  103.9389 C   0  0  0  0  0  0  0  0  0  0  0  0
   31.3559   22.6975  103.6174 C   0  0  0  0  0  0  0  0  0  0  0  0
   28.9367   23.2196  103.1935 C   0  0  0  0  0  0  0  0  0  0  0  0
   27.7280   23.8928  103.4446 C   0  0  0  0  0  0  0  0  0  0  0  0
   26.5509   23.6972  102.6752 N   0  0  0  0  0  0  0  0  0  0  0  0
   25.4256   24.4442  102.9918 C   0  0  0  0  0  0  0  0  0  0  0  0
   26.6203   22.9779  101.3847 C   0  0  0  0  0  0  0  0  0  0  0  0
   27.0311   23.8652  100.1883 C   0  0  1  0  0  0  0  0  0  0  0  0
   28.3478   23.5468   99.7199 O   0  0  0  0  0  0  0  0  0  0  0  0
   25.9767   23.9619   99.0537 C   0  0  1  0  0  0  0  0  0  0  0  0
   24.7458   23.3939   99.5460 O   0  0  0  0  0  0  0  0  0  0  0  0
   25.6679   25.3516   98.4682 C   0  0  1  0  0  0  0  0  0  0  0  0
   26.4922   25.5083   97.2960 O   0  0  0  0  0  0  0  0  0  0  0  0
   24.2104   25.5839   98.0630 C   0  0  0  0  0  0  0  0  0  0  0  0
   24.1885   26.3609   96.8679 O   0  0  0  0  0  0  0  0  0  0  0  0
   23.5428   25.6806   95.5675 P   0  0  1  0  0  5  0  0  0  0  0  0
   22.0876   25.9043   95.3355 O   0  0  0  0  0  0  0  0  0  0  0  0
   24.4482   26.2886   94.3956 O   0  0  0  0  0  0  0  0  0  0  0  0
   24.0140   24.1664   95.6249 O   0  0  0  0  0  0  0  0  0  0  0  0
  1  2  2  0
  1  3  1  1
  1  4  1  0
  4  5  1  0
  6  5  1  6
  6  7  1  0
  6  8  1  0
  8  9  1  1
  8 10  1  0
 10 11  1  6
  7 12  1  0
 10 12  1  0
 12 13  1  1
 13 14  4  0
 14 15  4  0
 15 16  4  0
 16 17  4  0
 17 18  1  0
 17 19  4  0
 19 20  4  0
 20 21  4  0
 13 22  4  0
 16 22  4  0
 21 22  4  0
 23 24  4  0
 24 25  2  0
 24 26  4  0
 26 27  4  0
 27 28  2  0
 27 29  4  0
 29 30  4  0
 30 31  4  0
 31 32  4  0
 32 33  4  0
 33 34  1  0
 33 35  4  0
 35 36  1  0
 35 37  4  0
 31 38  4  0
 37 38  4  0
 38 39  4  0
 23 40  4  0
 29 40  1  0
 39 40  4  0
 39 41  1  0
 41 42  1  0
 42 43  1  6
 42 44  1  0
 44 45  1  1
 44 46  1  0
 46 47  1  6
 46 48  1  0
 48 49  1  0
 49 50  1  0
 50 51  2  0
 50 52  1  6
  1 53  1  0
 50 53  1  0
M  END
