@<TRIPOS>MOLECULE
1GM8_SOX_B_1559
 44 46 0 0 0
SMALL
GASTEIGER

@<TRIPOS>ATOM
      1 O           2.3652    0.8520   -2.6836 O.2     1  UNL1       -0.2734
      2 C           1.5173    1.1516   -1.8032 C.2     1  UNL1        0.2402
      3 N           1.5794    1.5107   -0.3682 N.am    1  UNL1       -0.2705
      4 CA          2.3431    0.9836    0.7491 C.3     1  UNL1        0.1382
      5 C           2.8460    2.1313    1.5841 C.2     1  UNL1        0.3269
      6 O           2.1012    3.1184    1.8315 O.2     1  UNL1       -0.2489
      7 OXT         4.1284    2.0811    2.1206 O.3     1  UNL1       -0.4793
      8 C           1.3529    0.0253    1.5010 C.3     1  UNL1        0.0445
      9 C           1.5484   -1.4157    0.9916 C.3     1  UNL1       -0.0481
     10 C           1.5035    0.0358    3.0344 C.3     1  UNL1       -0.0481
     11 S          -0.3224    0.6065    1.0443 S.3     1  UNL1       -0.1207
     12 C           0.1470    1.6392   -0.3654 C.3     1  UNL1        0.1031
     13 CA          0.0233    1.2123   -1.7466 C.3     1  UNL1        0.1280
     14 N          -0.5773   -0.1042   -1.9636 N.am    1  UNL1       -0.3015
     15 C          -1.9721   -0.2541   -2.2621 C.2     1  UNL1        0.2180
     16 O          -2.7596    0.7213   -2.1261 O.2     1  UNL1       -0.2754
     17 C          -2.5080   -1.5832   -2.7036 C.3     1  UNL1        0.0491
     18 C          -2.6132   -2.5190   -1.5313 C.ar    1  UNL1       -0.0386
     19 C          -1.5462   -3.3748   -1.2062 C.ar    1  UNL1       -0.0581
     20 C          -1.6223   -4.1980   -0.0786 C.ar    1  UNL1       -0.0615
     21 C          -2.7601   -4.1716    0.7325 C.ar    1  UNL1       -0.0617
     22 C          -3.8230   -3.3200    0.4189 C.ar    1  UNL1       -0.0615
     23 C          -3.7501   -2.4926   -0.7061 C.ar    1  UNL1       -0.0581
     24 O          -1.2968   -0.7113    0.5913 O.3     1  UNL1       -0.3503
     25 HA          3.2251    0.4288    0.3594 H       1  UNL1        0.0631
     26 HXT         4.4790    2.8349    2.6992 H       1  UNL1        0.2951
     27 H           2.5707   -1.7766    1.2362 H       1  UNL1        0.0244
     28 H           1.4172   -1.4649   -0.1094 H       1  UNL1        0.0244
     29 H           0.8171   -2.1066    1.4628 H       1  UNL1        0.0244
     30 H           1.2600    1.0350    3.4528 H       1  UNL1        0.0244
     31 H           0.8073   -0.6970    3.4963 H       1  UNL1        0.0244
     32 H           2.5426   -0.2318    3.3230 H       1  UNL1        0.0244
     33 H          -0.9355    1.3657    2.0376 H       1  UNL1        0.1114
     34 H          -0.1492    2.7011   -0.2163 H       1  UNL1        0.0643
     35 HA         -0.3751    1.9904   -2.4344 H       1  UNL1        0.0622
     36 H           0.0394   -0.9445   -2.0433 H       1  UNL1        0.1495
     37 H          -3.5065   -1.4522   -3.1753 H       1  UNL1        0.0407
     38 H          -1.8370   -2.0095   -3.4806 H       1  UNL1        0.0407
     39 H          -0.6534   -3.3969   -1.8185 H       1  UNL1        0.0620
     40 H          -0.7965   -4.8523    0.1694 H       1  UNL1        0.0618
     41 H          -2.8165   -4.8078    1.6063 H       1  UNL1        0.0618
     42 H          -4.7009   -3.2960    1.0515 H       1  UNL1        0.0618
     43 H          -4.5736   -1.8255   -0.9292 H       1  UNL1        0.0620
     44 H          -1.5440   -1.1464    1.4457 H       1  UNL1        0.2250
@<TRIPOS>BOND
     1     1     2    2
     2     2     3   am
     3     3     4    1
     4     4     5    1
     5     5     6    2
     6     5     7    1
     7     4     8    1
     8     8     9    1
     9     8    10    1
    10     8    11    1
    11    12     3    1
    12    11    12    1
    13     2    13    1
    14    12    13    1
    15    13    14    1
    16    14    15   am
    17    15    16    2
    18    15    17    1
    19    17    18    1
    20    18    19   ar
    21    19    20   ar
    22    20    21   ar
    23    21    22   ar
    24    18    23   ar
    25    22    23   ar
    26    11    24    1
    27     4    25    1
    28     7    26    1
    29     9    27    1
    30     9    28    1
    31     9    29    1
    32    10    30    1
    33    10    31    1
    34    10    32    1
    35    11    33    1
    36    12    34    1
    37    13    35    1
    38    14    36    1
    39    17    37    1
    40    17    38    1
    41    19    39    1
    42    20    40    1
    43    21    41    1
    44    22    42    1
    45    23    43    1
    46    24    44    1
