1GM8_SOX_B_1559
     RDKit          3D

 44 46  0  0  0  0  0  0  0  0999 V2000
   14.9155   -1.0461    2.0240 O   0  0  0  0  0  0  0  0  0  0  0  0
   14.9495   -1.7779    2.9852 C   0  0  0  0  0  0  0  0  0  0  0  0
   15.6489   -2.9629    3.2405 N   0  0  0  0  0  0  0  0  0  0  0  0
   16.8486   -3.5050    2.6741 C   0  0  2  0  0  0  0  0  0  0  0  0
   16.6030   -4.7540    1.8153 C   0  0  0  0  0  0  0  0  0  0  0  0
   16.5145   -5.8663    2.2363 O   0  0  0  0  0  0  0  0  0  0  0  0
   16.5409   -4.3915    0.5018 O   0  0  0  0  0  0  0  0  0  0  0  0
   17.7337   -3.7637    3.9142 C   0  0  1  0  0  0  0  0  0  0  0  0
   17.6958   -5.2236    4.4427 C   0  0  0  0  0  0  0  0  0  0  0  0
   19.2211   -3.4291    3.6761 C   0  0  0  0  0  0  0  0  0  0  0  0
   17.0801   -2.6214    5.1836 S   0  0  2  0  0  4  0  0  0  0  0  0
   15.3654   -2.8722    4.6585 C   0  0  1  0  0  0  0  0  0  0  0  0
   14.3689   -1.7310    4.3814 C   0  0  1  0  0  0  0  0  0  0  0  0
   14.5515   -0.4519    5.0069 N   0  0  0  0  0  0  0  0  0  0  0  0
   14.9071    0.6642    4.3265 C   0  0  0  0  0  0  0  0  0  0  0  0
   14.3388    1.7499    4.2344 O   0  0  0  0  0  0  0  0  0  0  0  0
   16.2431    0.5345    3.5952 C   0  0  0  0  0  0  0  0  0  0  0  0
   17.1192    1.7385    3.9200 C   0  0  0  0  0  0  0  0  0  0  0  0
   18.0475    1.7216    4.9503 C   0  0  0  0  0  0  0  0  0  0  0  0
   18.7363    2.8899    5.2919 C   0  0  0  0  0  0  0  0  0  0  0  0
   18.5528    4.0569    4.5357 C   0  0  0  0  0  0  0  0  0  0  0  0
   17.6486    4.0802    3.4688 C   0  0  0  0  0  0  0  0  0  0  0  0
   16.9277    2.9179    3.1970 C   0  0  0  0  0  0  0  0  0  0  0  0
   17.2812   -1.2050    4.7976 O   0  0  0  0  0  0  0  0  0  0  0  0
   17.3143   -2.8437    1.9736 H   0  0  0  0  0  0  0  0  0  0  0  0
   16.6204   -3.4896    0.2605 H   0  0  0  0  0  0  0  0  0  0  0  0
   18.0797   -5.8842    3.6937 H   0  0  0  0  0  0  0  0  0  0  0  0
   18.2952   -5.2989    5.3258 H   0  0  0  0  0  0  0  0  0  0  0  0
   16.6862   -5.4936    4.6727 H   0  0  0  0  0  0  0  0  0  0  0  0
   19.6209   -4.0889    2.9347 H   0  0  0  0  0  0  0  0  0  0  0  0
   19.3095   -2.4177    3.3383 H   0  0  0  0  0  0  0  0  0  0  0  0
   19.7643   -3.5486    4.5902 H   0  0  0  0  0  0  0  0  0  0  0  0
   17.5411   -2.8172    6.4480 H   0  0  0  0  0  0  0  0  0  0  0  0
   14.9546   -3.5490    5.3783 H   0  0  0  0  0  0  0  0  0  0  0  0
   13.3397   -1.8368    4.6543 H   0  0  0  0  0  0  0  0  0  0  0  0
   14.4113   -0.3824    5.9789 H   0  0  0  0  0  0  0  0  0  0  0  0
   16.7367   -0.3610    3.9103 H   0  0  0  0  0  0  0  0  0  0  0  0
   16.0696    0.4938    2.5402 H   0  0  0  0  0  0  0  0  0  0  0  0
   18.2301    0.8462    5.4654 H   0  0  0  0  0  0  0  0  0  0  0  0
   19.3790    2.8933    6.0994 H   0  0  0  0  0  0  0  0  0  0  0  0
   19.0900    4.9066    4.7689 H   0  0  0  0  0  0  0  0  0  0  0  0
   17.5190    4.9316    2.9001 H   0  0  0  0  0  0  0  0  0  0  0  0
   16.2300    2.9297    2.4368 H   0  0  0  0  0  0  0  0  0  0  0  0
   16.9523   -1.0658    3.8957 H   0  0  0  0  0  0  0  0  0  0  0  0
  1  2  2  0
  2  3  1  0
  3  4  1  0
  4  5  1  0
  5  6  2  0
  5  7  1  0
  4  8  1  0
  8  9  1  6
  8 10  1  0
  8 11  1  0
 12  3  1  0
 11 12  1  0
  2 13  1  0
 12 13  1  0
 13 14  1  0
 14 15  1  0
 15 16  2  0
 15 17  1  0
 17 18  1  0
 18 19  2  0
 19 20  1  0
 20 21  2  0
 21 22  1  0
 18 23  1  0
 22 23  2  0
 11 24  1  0
  4 25  1  1
  7 26  1  0
  9 27  1  0
  9 28  1  0
  9 29  1  0
 10 30  1  0
 10 31  1  0
 10 32  1  0
 11 33  1  6
 12 34  1  6
 13 35  1  1
 14 36  1  0
 17 37  1  0
 17 38  1  0
 19 39  1  0
 20 40  1  0
 21 41  1  0
 22 42  1  0
 23 43  1  0
 24 44  1  0
M  END
