@<TRIPOS>MOLECULE
1GM8_SOX_B_1559
 44 46 0 0 0
SMALL
GASTEIGER

@<TRIPOS>ATOM
      1 O          11.7930   -2.1560    2.0530 O.2     1  UNL1       -0.2734
      2 C          12.8370   -2.6800    2.3630 C.2     1  UNL1        0.2402
      3 N          13.1500   -3.9790    2.7790 N.am    1  UNL1       -0.2705
      4 CA         12.3530   -5.0080    3.3790 C.3     1  UNL1        0.1382
      5 C          12.1060   -6.2040    2.4480 C.2     1  UNL1        0.3269
      6 O          12.4880   -6.2830    1.3210 O.2     1  UNL1       -0.2489
      7 OXT        11.4180   -7.1670    3.1260 O.3     1  UNL1       -0.4793
      8 C          13.1470   -5.3640    4.6560 C.3     1  UNL1        0.0445
      9 C          14.0770   -6.6000    4.5160 C.3     1  UNL1       -0.0481
     10 C          12.2410   -5.6410    5.8740 C.3     1  UNL1       -0.0481
     11 S          14.1410   -3.8690    5.0030 S.3     1  UNL1       -0.1207
     12 C          14.4550   -3.5580    3.2470 C.3     1  UNL1        0.1031
     13 CA         14.2560   -2.1940    2.5600 C.3     1  UNL1        0.1280
     14 N          14.3180   -0.9860    3.3330 N.am    1  UNL1       -0.3015
     15 C          14.9890    0.1200    2.9310 C.2     1  UNL1        0.2180
     16 O          15.6650    0.3130    1.9230 O.2     1  UNL1       -0.2754
     17 C          14.9000    1.2820    3.9200 C.3     1  UNL1        0.0491
     18 C          16.3010    1.7990    4.2240 C.ar    1  UNL1       -0.0386
     19 C          16.8270    2.9210    3.6010 C.ar    1  UNL1       -0.0581
     20 C          18.0650    3.4310    4.0050 C.ar    1  UNL1       -0.0615
     21 C          18.8150    2.7570    4.9800 C.ar    1  UNL1       -0.0617
     22 C          18.3160    1.6020    5.5910 C.ar    1  UNL1       -0.0615
     23 C          17.0490    1.1580    5.2140 C.ar    1  UNL1       -0.0581
     24 O          13.2820   -2.7090    5.3380 O.3     1  UNL1       -0.3503
     25 HA         11.3554   -4.6884    3.5969 H       1  UNL1        0.0631
     26 HXT        11.1562   -7.0188    4.0134 H       1  UNL1        0.2951
     27 H          13.4869   -7.4692    4.3132 H       1  UNL1        0.0244
     28 H          14.6205   -6.7424    5.4266 H       1  UNL1        0.0244
     29 H          14.7643   -6.4399    3.7117 H       1  UNL1        0.0244
     30 H          11.6509   -6.5141    5.6884 H       1  UNL1        0.0244
     31 H          11.5962   -4.8028    6.0369 H       1  UNL1        0.0244
     32 H          12.8476   -5.7982    6.7413 H       1  UNL1        0.0244
     33 H          15.1059   -4.0082    5.9512 H       1  UNL1        0.1114
     34 H          15.4521   -3.9088    3.0807 H       1  UNL1        0.0643
     35 HA         14.9364   -1.8693    1.8007 H       1  UNL1        0.0622
     36 H          13.8495   -0.9600    4.1985 H       1  UNL1        0.1495
     37 H          14.4399    0.9453    4.8254 H       1  UNL1        0.0407
     38 H          14.3141    2.0692    3.4935 H       1  UNL1        0.0407
     39 H          16.3044    3.3799    2.8386 H       1  UNL1        0.0620
     40 H          18.4263    4.3023    3.5862 H       1  UNL1        0.0618
     41 H          19.7440    3.1168    5.2492 H       1  UNL1        0.0618
     42 H          18.8686    1.0939    6.2992 H       1  UNL1        0.0618
     43 H          16.6511    0.3287    5.6818 H       1  UNL1        0.0620
     44 H          12.5939   -2.6101    4.6615 H       1  UNL1        0.2250
@<TRIPOS>BOND
     1     1     2    2
     2     2     3   am
     3     3     4    1
     4     4     5    1
     5     5     6    2
     6     5     7    1
     7     4     8    1
     8     8     9    1
     9     8    10    1
    10     8    11    1
    11    12     3    1
    12    11    12    1
    13     2    13    1
    14    12    13    1
    15    13    14    1
    16    14    15   am
    17    15    16    2
    18    15    17    1
    19    17    18    1
    20    18    19   ar
    21    19    20   ar
    22    20    21   ar
    23    21    22   ar
    24    18    23   ar
    25    22    23   ar
    26    11    24    1
    27     4    25    1
    28     7    26    1
    29     9    27    1
    30     9    28    1
    31     9    29    1
    32    10    30    1
    33    10    31    1
    34    10    32    1
    35    11    33    1
    36    12    34    1
    37    13    35    1
    38    14    36    1
    39    17    37    1
    40    17    38    1
    41    19    39    1
    42    20    40    1
    43    21    41    1
    44    22    42    1
    45    23    43    1
    46    24    44    1
