1XOQ_ROF_B_501
     RDKit          3D

 26 28  0  0  0  0  0  0  0  0999 V2000
   20.0856   22.3860   96.2900 O   0  0  0  0  0  0  0  0  0  0  0  0
   25.6635   16.8411   99.7245 C   0  0  0  0  0  0  0  0  0  0  0  0
   26.0844   16.9664   98.2752 C   0  0  0  0  0  0  0  0  0  0  0  0
   24.9767   17.7923   98.8012 C   0  0  2  0  0  0  0  0  0  0  0  0
   21.1933   21.8339   96.5089 C   0  0  0  0  0  0  0  0  0  0  0  0
   21.6054   21.6132   97.8880 C   0  0  0  0  0  0  0  0  0  0  0  0
   20.8956   22.2291   98.8867 C   0  0  0  0  0  0  0  0  0  0  0  0
   21.2623   22.0372  100.1783 C   0  0  0  0  0  0  0  0  0  0  0  0
   22.3523   21.2256  100.5727 C   0  0  0  0  0  0  0  0  0  0  0  0
   22.5648   21.1545  101.8940 O   0  0  0  0  0  0  0  0  0  0  0  0
   22.0770   21.8857  102.9336 C   0  0  1  0  0  0  0  0  0  0  0  0
   22.3246   23.2606  102.7996 F   0  0  0  0  0  0  0  0  0  0  0  0
   20.6657   21.7865  103.0006 F   0  0  0  0  0  0  0  0  0  0  0  0
   23.0725   20.5994   99.5484 C   0  0  0  0  0  0  0  0  0  0  0  0
   24.1090   19.8219   99.8849 O   0  0  0  0  0  0  0  0  0  0  0  0
   25.1224   19.2488   99.1615 C   0  0  0  0  0  0  0  0  0  0  0  0
   22.6699   20.8192   98.2499 C   0  0  0  0  0  0  0  0  0  0  0  0
   21.9657   21.4641   95.3827 N   0  0  0  0  0  0  0  0  0  0  0  0
   21.3822   21.6683   94.0930 C   0  0  0  0  0  0  0  0  0  0  0  0
   21.0162   20.5659   93.3337 C   0  0  0  0  0  0  0  0  0  0  0  0
   21.2605   18.9307   93.9360 Cl  0  0  0  0  0  0  0  0  0  0  0  0
   20.4515   20.7850   92.0847 C   0  0  0  0  0  0  0  0  0  0  0  0
   20.2621   22.0502   91.6178 N   0  0  0  0  0  0  0  0  0  0  0  0
   20.6241   23.1081   92.3701 C   0  0  0  0  0  0  0  0  0  0  0  0
   21.1948   22.9676   93.6291 C   0  0  0  0  0  0  0  0  0  0  0  0
   21.6596   24.3428   94.5945 Cl  0  0  0  0  0  0  0  0  0  0  0  0
  2  3  1  6
  2  4  1  0
  3  4  1  1
  1  5  2  0
  5  6  1  0
  6  7  2  0
  7  8  1  0
  8  9  2  0
  9 10  1  0
 10 11  1  0
 11 12  1  6
 11 13  1  0
  9 14  1  0
 14 15  1  0
  4 16  1  1
 16 15  1  1
  6 17  1  0
 14 17  2  0
  5 18  1  0
 18 19  1  0
 19 20  2  0
 20 21  1  0
 20 22  1  0
 22 23  2  0
 23 24  1  0
 19 25  1  0
 24 25  2  0
 25 26  1  0
M  END
$$$$
