
     RDKit          3D

 23 25  0  0  0  0  0  0  0  0999 V2000
   35.8675   17.8521   60.5108 S   0  0  0  0  0  0  0  0  0  0  0  0
   35.3507   19.0517   59.3975 C   0  0  0  0  0  0  0  0  0  0  0  0
   36.4489   19.5923   58.7623 C   0  0  0  0  0  0  0  0  0  0  0  0
   37.6707   19.0747   59.1430 N   0  0  0  0  0  0  0  0  0  0  0  0
   37.4864   18.1515   60.0493 C   0  0  0  0  0  0  0  0  0  0  0  0
   38.3997   17.3784   60.7113 N   0  0  0  0  0  0  0  0  0  0  0  0
   38.4811   17.3459   62.0869 C   0  0  0  0  0  0  0  0  0  0  0  0
   37.9090   18.0907   62.8727 O   0  0  0  0  0  0  0  0  0  0  0  0
   40.3015   16.6307   63.6851 C   0  0  0  0  0  0  0  0  0  0  0  0
   39.4244   16.3148   62.6253 C   0  0  0  0  0  0  0  0  0  0  0  0
   39.4471   15.0327   62.0439 C   0  0  0  0  0  0  0  0  0  0  0  0
   40.3445   14.0572   62.4963 C   0  0  0  0  0  0  0  0  0  0  0  0
   41.2320   14.3923   63.5210 C   0  0  0  0  0  0  0  0  0  0  0  0
   42.1340   13.5076   63.9676 F   0  0  0  0  0  0  0  0  0  0  0  0
   41.1980   15.6496   64.1222 C   0  0  0  0  0  0  0  0  0  0  0  0
   40.3123   12.4570   61.7076 S   0  0  0  0  0  0  0  0  0  0  0  0
   42.5676   10.9862   62.2886 N   0  0  0  0  0  0  0  0  0  0  0  0
   42.0066   12.0875   61.6944 C   0  0  0  0  0  0  0  0  0  0  0  0
   42.9087   12.8025   61.0608 N   0  0  0  0  0  0  0  0  0  0  0  0
   44.1019   12.1707   61.2895 C   0  0  0  0  0  0  0  0  0  0  0  0
   43.9171   11.0403   62.0498 C   0  0  0  0  0  0  0  0  0  0  0  0
   41.9078    9.9318   63.0181 C   0  0  0  0  0  0  0  0  0  0  0  0
   40.2050   17.8130   64.4235 N   0  0  0  0  0  0  0  0  0  0  0  0
  1  2  4  0
  2  3  4  0
  3  4  4  0
  1  5  4  0
  4  5  4  0
  5  6  1  0
  6  7  1  0
  7  8  2  0
  7 10  1  0
  9 10  4  0
 10 11  4  0
 11 12  4  0
 12 13  4  0
 13 14  1  0
  9 15  4  0
 13 15  4  0
 12 16  1  0
 16 18  1  0
 17 18  4  0
 18 19  4  0
 19 20  4  0
 17 21  4  0
 20 21  4  0
 17 22  1  0
  9 23  1  0
M  END
