6YYO_Q1K_BBB_323
     RDKit          3D

 19 21  0  0  0  0  0  0  0  0999 V2000
    5.7517   19.9450   27.1317 C   0  0  0  0  0  0  0  0  0  0  0  0
    9.8557   19.5124   25.5028 C   0  0  0  0  0  0  0  0  0  0  0  0
    9.3723   21.7627   24.7541 C   0  0  0  0  0  0  0  0  0  0  0  0
    8.4968   19.3371   26.1255 C   0  0  0  0  0  0  0  0  0  0  0  0
    8.0133   21.1257   24.4911 C   0  0  0  0  0  0  0  0  0  0  0  0
    4.6841   20.4064   27.8783 C   0  0  0  0  0  0  0  0  0  0  0  0
    6.5464   20.8785   26.5003 C   0  0  0  0  0  0  0  0  0  0  0  0
    4.7936   23.8899   27.5927 C   0  0  0  0  0  0  0  0  0  0  0  0
   11.8132   21.9562   23.4981 O   0  0  0  0  0  0  0  0  0  0  0  0
   11.7902   20.9042   24.5871 S   0  0  2  0  0  6  0  0  0  0  0  0
   12.8119   21.3465   25.6174 O   0  0  0  0  0  0  0  0  0  0  0  0
   12.2683   19.3250   23.9719 C   0  0  0  0  0  0  0  0  0  0  0  0
   10.2710   20.8861   25.4074 N   0  0  0  0  0  0  0  0  0  0  0  0
    7.6431   20.4678   25.7299 N   0  0  0  0  0  0  0  0  0  0  0  0
    6.2958   22.1944   26.6040 N   0  0  0  0  0  0  0  0  0  0  0  0
    4.4739   21.7684   27.9501 C   0  0  0  0  0  0  0  0  0  0  0  0
    3.5125   22.4658   28.6058 N   0  0  0  0  0  0  0  0  0  0  0  0
    3.7151   23.7547   28.3825 N   0  0  0  0  0  0  0  0  0  0  0  0
    5.2705   22.6615   27.3197 N   0  0  0  0  0  0  0  0  0  0  0  0
  2  4  1  0
  3  5  1  0
  1  6  2  0
  1  7  1  0
  9 10  2  0
 10 11  2  0
 12 10  1  6
  2 13  1  1
 10 13  1  1
  3 13  1  1
  4 14  1  1
  7 14  1  0
  5 14  1  6
  7 15  2  0
  6 16  1  0
 16 17  2  0
  8 18  2  0
 17 18  1  0
  8 19  1  0
 15 19  1  0
 16 19  1  0
M  END
$$$$
