@<TRIPOS>MOLECULE
2BR1_PFP_A_1277
 50 53 0 0 0
SMALL
GASTEIGER

@<TRIPOS>ATOM
      1 C          -2.7480   -2.3553    4.1495 C.3     1  UNL1        0.0788
      2 O          -2.9473   -2.3973    2.7403 O.3     1  UNL1       -0.4951
      3 C          -2.0837   -1.8144    1.8011 C.ar    1  UNL1        0.1201
      4 C          -2.4005   -1.9333    0.4427 C.ar    1  UNL1       -0.0194
      5 C          -1.5713   -1.3716   -0.5316 C.ar    1  UNL1       -0.0504
      6 C          -0.9168   -1.1205    2.1764 C.ar    1  UNL1       -0.0194
      7 C          -0.0894   -0.5550    1.2019 C.ar    1  UNL1       -0.0504
      8 C          -0.4160   -0.6708   -0.1563 C.ar    1  UNL1       -0.0133
      9 C           0.4682   -0.0924   -1.1844 C.ar    1  UNL1        0.0406
     10 C           0.1461    0.8428   -2.1579 C.ar    1  UNL1        0.0878
     11 C          -1.0082    1.5653   -2.4880 C.ar    1  UNL1        0.1336
     12 N          -2.2016    1.5098   -1.6952 N.pl3   1  UNL1       -0.3262
     13 C          -3.4960    1.9111   -2.2438 C.3     1  UNL1        0.0336
     14 C          -4.6125    1.6950   -1.2201 C.3     1  UNL1        0.0597
     15 O          -5.8452    2.0941   -1.7542 O.3     1  UNL1       -0.3935
     16 N          -0.9443    2.3951   -3.5727 N.ar    1  UNL1       -0.2201
     17 C           0.2053    2.5440   -4.2998 C.ar    1  UNL1        0.1219
     18 N           1.3382    1.8712   -3.9466 N.ar    1  UNL1       -0.2005
     19 C           1.2882    1.0363   -2.8820 C.ar    1  UNL1        0.2331
     20 O           2.2816    0.3219   -2.4186 O.2     1  UNL1       -0.4360
     21 C           1.8257   -0.3789   -1.3959 C.ar    1  UNL1        0.1460
     22 C           2.6770   -1.3200   -0.6366 C.ar    1  UNL1        0.0182
     23 C           2.1729   -2.5383   -0.1507 C.ar    1  UNL1       -0.0476
     24 C           2.9998   -3.4144    0.5583 C.ar    1  UNL1       -0.0193
     25 C           4.3519   -3.0923    0.7795 C.ar    1  UNL1        0.1201
     26 O           5.2208   -3.9361    1.4873 O.3     1  UNL1       -0.4951
     27 C           4.8417   -5.1850    2.0563 C.3     1  UNL1        0.0788
     28 C           4.8574   -1.8896    0.2741 C.ar    1  UNL1       -0.0193
     29 C           4.0308   -1.0132   -0.4346 C.ar    1  UNL1       -0.0476
     30 H          -3.5794   -2.8931    4.6493 H       1  UNL1        0.0660
     31 H          -2.7419   -1.3026    4.5030 H       1  UNL1        0.0660
     32 H          -1.7916   -2.8535    4.4148 H       1  UNL1        0.0660
     33 H          -3.2931   -2.4666    0.1409 H       1  UNL1        0.0654
     34 H          -1.8297   -1.4807   -1.5779 H       1  UNL1        0.0625
     35 H          -0.6408   -1.0130    3.2163 H       1  UNL1        0.0654
     36 H           0.8050   -0.0248    1.5059 H       1  UNL1        0.0625
     37 H          -2.1366    1.2357   -0.6907 H       1  UNL1        0.1476
     38 H          -3.4609    2.9850   -2.5286 H       1  UNL1        0.0484
     39 H          -3.7108    1.3061   -3.1513 H       1  UNL1        0.0484
     40 H          -4.4051    2.3052   -0.3154 H       1  UNL1        0.0573
     41 H          -4.6504    0.6242   -0.9139 H       1  UNL1        0.0573
     42 H          -6.1305    1.3758   -2.3775 H       1  UNL1        0.2095
     43 H           0.2201    3.2115   -5.1502 H       1  UNL1        0.1049
     44 H           1.1481   -2.8289   -0.3374 H       1  UNL1        0.0626
     45 H           2.5802   -4.3423    0.9222 H       1  UNL1        0.0654
     46 H           4.0401   -5.0337    2.8099 H       1  UNL1        0.0660
     47 H           5.7214   -5.6364    2.5590 H       1  UNL1        0.0660
     48 H           4.4930   -5.8769    1.2607 H       1  UNL1        0.0660
     49 H           5.8973   -1.6327    0.4317 H       1  UNL1        0.0654
     50 H           4.4458   -0.0869   -0.8131 H       1  UNL1        0.0626
@<TRIPOS>BOND
     1     1     2    1
     2     2     3    1
     3     3     4   ar
     4     4     5   ar
     5     3     6   ar
     6     6     7   ar
     7     5     8   ar
     8     7     8   ar
     9     8     9    1
    10     9    10   ar
    11    10    11   ar
    12    11    12    1
    13    12    13    1
    14    13    14    1
    15    14    15    1
    16    11    16   ar
    17    16    17   ar
    18    17    18   ar
    19    10    19   ar
    20    18    19   ar
    21    19    20   ar
    22     9    21   ar
    23    20    21   ar
    24    21    22    1
    25    22    23   ar
    26    23    24   ar
    27    24    25   ar
    28    25    26    1
    29    26    27    1
    30    25    28   ar
    31    22    29   ar
    32    28    29   ar
    33     1    30    1
    34     1    31    1
    35     1    32    1
    36     4    33    1
    37     5    34    1
    38     6    35    1
    39     7    36    1
    40    12    37    1
    41    13    38    1
    42    13    39    1
    43    14    40    1
    44    14    41    1
    45    15    42    1
    46    17    43    1
    47    23    44    1
    48    24    45    1
    49    27    46    1
    50    27    47    1
    51    27    48    1
    52    28    49    1
    53    29    50    1
