1L2S_STC_B_2115
     RDKit          3D

 19 20  0  0  0  0  0  0  0  0999 V2000
   51.3207    5.3245   22.9864 N   0  0  0  0  0  0  0  0  0  0  0  0
   51.2044    3.9243   22.8493 C   0  0  0  0  0  0  0  0  0  0  0  0
   52.0995    3.2268   22.0062 C   0  0  0  0  0  0  0  0  0  0  0  0
   50.1859    3.2230   23.5564 C   0  0  0  0  0  0  0  0  0  0  0  0
   51.9824    1.8268   21.8633 C   0  0  0  0  0  0  0  0  0  0  0  0
   50.0725    1.8187   23.4147 C   0  0  0  0  0  0  0  0  0  0  0  0
   50.9710    1.1232   22.5652 C   0  0  0  0  0  0  0  0  0  0  0  0
   50.8298   -0.6050   22.3779 Cl  0  0  0  0  0  0  0  0  0  0  0  0
   52.6059    5.9874   23.9511 S   0  0  1  0  0  0  0  0  0  0  0  0
   54.2447    5.7100   23.1332 C   0  0  0  0  0  0  0  0  0  0  0  0
   52.3701    7.3977   24.0858 O   0  0  0  0  0  0  0  0  0  0  0  0
   52.5964    5.3693   25.2382 O   0  0  0  0  0  0  0  0  0  0  0  0
   54.6332    6.1342   21.8548 C   0  0  0  0  0  0  0  0  0  0  0  0
   55.3236    5.0263   23.7002 C   0  0  0  0  0  0  0  0  0  0  0  0
   55.9634    5.7116   21.6413 S   0  0  0  0  0  0  0  0  0  0  0  0
   53.8163    6.8938   20.8806 C   0  0  0  0  0  0  0  0  0  0  0  0
   56.3732    5.0228   22.7872 C   0  0  0  0  0  0  0  0  0  0  0  0
   52.5426    7.1756   21.1321 O   0  0  0  0  0  0  0  0  0  0  0  0
   54.3319    7.2672   19.8314 O   0  0  0  0  0  0  0  0  0  0  0  0
  1  2  1  0
  2  3  2  0
  2  4  1  0
  3  5  1  0
  4  6  2  0
  5  7  2  0
  6  7  1  0
  7  8  1  0
  9  1  1  6
  9 10  1  0
  9 11  2  0
  9 12  2  0
 10 13  2  0
 10 14  1  0
 13 15  1  0
 13 16  1  0
 14 17  2  0
 15 17  1  0
 16 18  1  0
 16 19  2  0
M  END
