8ACL_LQL_A_401
     RDKit          3D

 31 34  0  0  0  0  0  0  0  0999 V2000
    4.7203    2.6110   16.8953 N   0  0  0  0  0  0  0  0  0  0  0  0
    3.9565   -1.5279   15.3169 N   0  0  0  0  0  0  0  0  0  0  0  0
   12.2029    0.4006   20.7236 C   0  0  0  0  0  0  0  0  0  0  0  0
   12.5786   -0.6205   19.9281 C   0  0  0  0  0  0  0  0  0  0  0  0
    6.8359    1.8056   17.7766 C   0  0  1  0  0  0  0  0  0  0  0  0
    6.0805    2.2487   16.5202 C   0  0  0  0  0  0  0  0  0  0  0  0
    4.7020    3.6876   17.8793 C   0  0  0  0  0  0  0  0  0  0  0  0
    7.6469    2.6930   19.9179 C   0  0  0  0  0  0  0  0  0  0  0  0
    9.2617    2.3850   22.1550 C   0  0  0  0  0  0  0  0  0  0  0  0
    7.8782    3.7615   20.7636 C   0  0  0  0  0  0  0  0  0  0  0  0
    3.6831    0.8441   15.5612 C   0  0  0  0  0  0  0  0  0  0  0  0
    3.4850   -0.1723   13.4025 C   0  0  0  0  0  0  0  0  0  0  0  0
    3.4684    0.9628   14.1962 C   0  0  0  0  0  0  0  0  0  0  0  0
    9.2436    2.0030   18.0057 N   0  0  0  0  0  0  0  0  0  0  0  0
    8.2441    1.4301   17.3262 C   0  0  0  0  0  0  0  0  0  0  0  0
    8.4067    0.6892   16.3600 O   0  0  0  0  0  0  0  0  0  0  0  0
   10.6209    1.8359   17.6142 C   0  0  0  0  0  0  0  0  0  0  0  0
    8.2237    1.4385   20.2053 C   0  0  0  0  0  0  0  0  0  0  0  0
    9.0215    1.3014   21.3297 C   0  0  0  0  0  0  0  0  0  0  0  0
    8.6810    3.6117   21.8789 C   0  0  0  0  0  0  0  0  0  0  0  0
    3.5862    2.0090   16.4985 C   0  0  0  0  0  0  0  0  0  0  0  0
    3.9338   -0.4180   16.0665 C   0  0  0  0  0  0  0  0  0  0  0  0
    3.7196   -1.3895   14.0030 C   0  0  0  0  0  0  0  0  0  0  0  0
   11.3569    1.0875   18.6820 C   0  0  0  0  0  0  0  0  0  0  0  0
   11.4920    1.4043   20.0230 C   0  0  0  0  0  0  0  0  0  0  0  0
    5.4533    3.2605   19.1107 C   0  0  0  0  0  0  0  0  0  0  0  0
    6.8276    2.8656   18.7868 N   0  0  0  0  0  0  0  0  0  0  0  0
    2.4971    2.3540   16.9214 O   0  0  0  0  0  0  0  0  0  0  0  0
   12.0933   -0.3941   18.3239 S   0  0  0  0  0  0  0  0  0  0  0  0
    9.6916   -0.2730   21.7019 Cl  0  0  0  0  0  0  0  0  0  0  0  0
   10.3217    2.2597   23.5179 Cl  0  0  0  0  0  0  0  0  0  0  0  0
  3  4  2  0
  1  6  1  0
  5  6  1  0
  1  7  1  0
  8 10  1  0
 12 13  1  0
 11 13  2  0
  5 15  1  6
 14 15  1  0
 15 16  2  0
 14 17  1  0
  8 18  2  0
 18 19  1  0
  9 19  2  0
 10 20  2  0
  9 20  1  0
 11 21  1  0
  1 21  1  0
  2 22  2  0
 11 22  1  0
 12 23  2  0
  2 23  1  0
 17 24  1  0
 24 25  2  0
  3 25  1  0
  7 26  1  0
  5 27  1  0
 26 27  1  0
  8 27  1  0
 21 28  2  0
 24 29  1  0
  4 29  1  0
 19 30  1  0
  9 31  1  0
M  END
