
     RDKit          3D

 12 12  0  0  0  0  0  0  0  0999 V2000
  -31.6432    2.5733   -9.1943 C   0  0  2  0  0  0  0  0  0  0  0  0
  -30.7891    2.2635  -10.4372 C   0  0  1  0  0  0  0  0  0  0  0  0
  -30.1215    0.8943  -10.2842 C   0  0  2  0  0  0  0  0  0  0  0  0
  -29.3878    0.7853   -8.9412 C   0  0  2  0  0  0  0  0  0  0  0  0
  -30.3456    1.1507   -7.8006 C   0  0  1  0  0  0  0  0  0  0  0  0
  -29.6558    1.1337   -6.4346 C   0  0  0  0  0  0  0  0  0  0  0  0
  -32.1683    3.8903   -9.2977 O   0  0  0  0  0  0  0  0  0  0  0  0
  -31.5979    2.2961  -11.6207 O   0  0  0  0  0  0  0  0  0  0  0  0
  -29.2045    0.7106  -11.3732 O   0  0  0  0  0  0  0  0  0  0  0  0
  -28.2601    1.6780   -8.9837 O   0  0  0  0  0  0  0  0  0  0  0  0
  -30.8420    2.4886   -8.0151 O   0  0  0  0  0  0  0  0  0  0  0  0
  -30.6478    1.1477   -5.4077 O   0  0  0  0  0  0  0  0  0  0  0  0
  1  2  1  0
  2  3  1  0
  3  4  1  0
  4  5  1  0
  5  6  1  1
  1  7  1  6
  2  8  1  6
  3  9  1  6
  4 10  1  6
  1 11  1  0
  5 11  1  0
  6 12  1  0
M  END
