7USH_82V_A_501
     RDKit          3D

 43 47  0  0  0  0  0  0  0  0999 V2000
   16.4248   -9.4219    6.7764 C   0  0  0  0  0  0  0  0  0  0  0  0
   19.5760   -5.4843    6.2027 C   0  0  0  0  0  0  0  0  0  0  0  0
   19.0881   -3.1286    6.6208 C   0  0  0  0  0  0  0  0  0  0  0  0
   16.5600   -3.2661    6.5654 C   0  0  0  0  0  0  0  0  0  0  0  0
   13.9004   -2.1819    6.8156 C   0  0  0  0  0  0  0  0  0  0  0  0
   11.5562   -2.5451    6.8602 C   0  0  0  0  0  0  0  0  0  0  0  0
   15.4192   -3.9751    6.1646 C   0  0  0  0  0  0  0  0  0  0  0  0
   21.2565   -7.0814    5.8534 O   0  0  0  0  0  0  0  0  0  0  0  0
   20.0460   -6.8057    5.9572 C   0  0  0  0  0  0  0  0  0  0  0  0
   19.0238   -7.8190    5.7992 C   0  0  0  0  0  0  0  0  0  0  0  0
   17.7337   -7.4751    5.7640 C   0  0  0  0  0  0  0  0  0  0  0  0
   16.6236   -8.3603    5.7772 N   0  0  0  0  0  0  0  0  0  0  0  0
   15.4406   -8.2796    4.9197 C   0  0  0  0  0  0  0  0  0  0  0  0
   14.2010   -7.9666    5.7702 C   0  0  0  0  0  0  0  0  0  0  0  0
   14.0544   -8.8790    6.8567 O   0  0  0  0  0  0  0  0  0  0  0  0
   15.2319   -9.0672    7.6385 C   0  0  0  0  0  0  0  0  0  0  0  0
   17.3270   -6.2093    6.0546 O   0  0  0  0  0  3  0  0  0  0  0  0
   18.2487   -5.2130    6.2390 C   0  0  0  0  0  0  0  0  0  0  0  0
   20.5117   -4.0833    6.4549 S   0  0  0  0  0  0  0  0  0  0  0  0
   17.9110   -3.8121    6.5010 C   0  0  0  0  0  0  0  0  0  0  0  0
   16.2963   -1.9902    7.1277 C   0  0  0  0  0  0  0  0  0  0  0  0
   15.0082   -1.4456    7.2396 C   0  0  0  0  0  0  0  0  0  0  0  0
   12.6471   -1.6345    6.9370 O   0  0  0  0  0  0  0  0  0  0  0  0
   11.7614   -3.5919    5.7748 C   0  0  0  0  0  0  0  0  0  0  0  0
   13.0556   -4.2011    5.8373 O   0  0  0  0  0  0  0  0  0  0  0  0
   14.1086   -3.4561    6.2715 C   0  0  0  0  0  0  0  0  0  0  0  0
   16.2454  -10.3529    6.2805 H   0  0  0  0  0  0  0  0  0  0  0  0
   17.2988   -9.5131    7.3870 H   0  0  0  0  0  0  0  0  0  0  0  0
   19.1217   -2.1125    6.7981 H   0  0  0  0  0  0  0  0  0  0  0  0
   11.4531   -3.0407    7.8029 H   0  0  0  0  0  0  0  0  0  0  0  0
   10.6763   -1.9864    6.6179 H   0  0  0  0  0  0  0  0  0  0  0  0
   15.5420   -4.9218    5.7725 H   0  0  0  0  0  0  0  0  0  0  0  0
   19.2933   -8.8115    5.7133 H   0  0  0  0  0  0  0  0  0  0  0  0
   15.5793   -7.5042    4.1955 H   0  0  0  0  0  0  0  0  0  0  0  0
   15.3004   -9.2167    4.4229 H   0  0  0  0  0  0  0  0  0  0  0  0
   14.2918   -6.9750    6.1616 H   0  0  0  0  0  0  0  0  0  0  0  0
   13.3385   -8.0577    5.1434 H   0  0  0  0  0  0  0  0  0  0  0  0
   15.0612   -9.8593    8.3374 H   0  0  0  0  0  0  0  0  0  0  0  0
   15.4468   -8.1493    8.1446 H   0  0  0  0  0  0  0  0  0  0  0  0
   17.0939   -1.4335    7.4725 H   0  0  0  0  0  0  0  0  0  0  0  0
   14.8796   -0.5012    7.6351 H   0  0  0  0  0  0  0  0  0  0  0  0
   11.0181   -4.3532    5.8876 H   0  0  0  0  0  0  0  0  0  0  0  0
   11.6799   -3.0989    4.8286 H   0  0  0  0  0  0  0  0  0  0  0  0
  4  7  4  0
  2  9  4  0
  8  9  2  0
  9 10  4  0
 10 11  4  0
 11 12  1  0
  1 12  1  0
 12 13  1  0
 13 14  1  0
 14 15  1  0
  1 16  1  0
 15 16  1  0
 11 17  4  0
  2 18  4  0
 17 18  4  0
  3 19  4  0
  2 19  4  0
  3 20  4  0
  4 20  1  0
 18 20  4  0
  4 21  4  0
  5 22  4  0
 21 22  4  0
  5 23  1  0
  6 23  1  0
  6 24  1  0
 24 25  1  0
 25 26  1  0
  7 26  4  0
  5 26  4  0
  1 27  1  0
  1 28  1  0
  3 29  1  0
  6 30  1  0
  6 31  1  0
  7 32  1  0
 10 33  1  0
 13 34  1  0
 13 35  1  0
 14 36  1  0
 14 37  1  0
 16 38  1  0
 16 39  1  0
 21 40  1  0
 22 41  1  0
 24 42  1  0
 24 43  1  0
M  CHG  1  17   1
M  END
