7JG0_GAR_A_1101
     RDKit          3D

 18 18  0  0  0  0  0  0  0  0999 V2000
  -31.8361   19.1281   39.0044 C   0  0  1  0  0  0  0  0  0  0  0  0
  -31.9803   18.1255   39.9496 O   0  0  0  0  0  0  0  0  0  0  0  0
  -30.4554   19.7411   39.0169 C   0  0  1  0  0  0  0  0  0  0  0  0
  -29.5348   18.7367   39.1890 O   0  0  0  0  0  0  0  0  0  0  0  0
  -30.3433   20.2314   37.5728 C   0  0  1  0  0  0  0  0  0  0  0  0
  -31.4311   19.7469   36.9019 O   0  0  0  0  0  0  0  0  0  0  0  0
  -31.8674   18.6069   37.5761 C   0  0  2  0  0  0  0  0  0  0  0  0
  -33.2509   18.2035   37.1558 C   0  0  0  0  0  0  0  0  0  0  0  0
  -33.7329   18.9811   36.1338 O   0  0  0  0  0  0  0  0  0  0  0  0
  -30.2629   21.6788   37.6388 N   0  0  0  0  0  0  0  0  0  0  0  0
  -30.1701   22.5150   36.5040 C   0  0  0  0  0  0  0  0  0  0  0  0
  -30.1051   21.9332   35.3697 O   0  0  0  0  0  0  0  0  0  0  0  0
  -30.1433   23.9812   36.5314 C   0  0  0  0  0  0  0  0  0  0  0  0
  -29.9595   24.5762   35.2299 N   0  0  0  0  0  0  0  0  0  0  0  0
  -35.3506   19.4421   36.4435 P   0  0  1  0  0  0  0  0  0  0  0  0
  -35.4365   19.9371   37.8516 O   0  0  0  0  0  0  0  0  0  0  0  0
  -35.7654   20.6370   35.3407 O   0  0  0  0  0  0  0  0  0  0  0  0
  -36.3681   18.0829   36.3066 O   0  0  0  0  0  0  0  0  0  0  0  0
  1  2  1  1
  1  3  1  0
  3  4  1  6
  3  5  1  0
  5  6  1  0
  1  7  1  0
  6  7  1  0
  7  8  1  6
  8  9  1  0
  5 10  1  1
 10 11  1  0
 11 12  2  0
 11 13  1  0
 13 14  1  0
  9 15  1  0
 15 16  2  0
 15 17  1  6
 15 18  1  0
M  CHG  2  17  -1  18  -1
M  END
$$$$
