1SJ0_E4D_A_600
     RDKit          3D

 62 66  0  0  0  0  0  0  0  0999 V2000
   17.5028   -8.9043   -1.3861 C   0  0  2  0  0  0  0  0  0  0  0  0
   16.8229   -9.8738   -2.3708 C   0  0  1  0  0  0  0  0  0  0  0  0
   15.8569  -10.6911   -1.7192 O   0  0  0  0  0  0  0  0  0  0  0  0
   16.0965  -11.3833   -0.5299 C   0  0  0  0  0  0  0  0  0  0  0  0
   15.1718  -12.3570   -0.1344 C   0  0  0  0  0  0  0  0  0  0  0  0
   15.3315  -13.0368    1.0746 C   0  0  0  0  0  0  0  0  0  0  0  0
   16.4132  -12.7415    1.9069 C   0  0  0  0  0  0  0  0  0  0  0  0
   16.5562  -13.4192    3.1154 O   0  0  0  0  0  0  0  0  0  0  0  0
   17.3416  -11.7661    1.5204 C   0  0  0  0  0  0  0  0  0  0  0  0
   17.1998  -11.0900    0.3008 C   0  0  0  0  0  0  0  0  0  0  0  0
   18.4278   -9.8297   -0.1049 S   0  0  0  0  0  0  0  0  0  0  0  0
   16.5783   -7.8335   -0.8208 C   0  0  0  0  0  0  0  0  0  0  0  0
   16.9914   -6.5007   -0.6246 C   0  0  0  0  0  0  0  0  0  0  0  0
   16.1251   -5.5645   -0.0528 C   0  0  0  0  0  0  0  0  0  0  0  0
   14.8364   -5.9435    0.3402 C   0  0  0  0  0  0  0  0  0  0  0  0
   13.9673   -5.0187    0.9139 O   0  0  0  0  0  0  0  0  0  0  0  0
   14.4179   -7.2631    0.1575 C   0  0  0  0  0  0  0  0  0  0  0  0
   15.2801   -8.2011   -0.4157 C   0  0  0  0  0  0  0  0  0  0  0  0
   16.1891   -9.1359   -3.5305 C   0  0  0  0  0  0  0  0  0  0  0  0
   16.2900   -7.7379   -3.6074 C   0  0  0  0  0  0  0  0  0  0  0  0
   15.6609   -7.0364   -4.6397 C   0  0  0  0  0  0  0  0  0  0  0  0
   14.9099   -7.7242   -5.6122 C   0  0  0  0  0  0  0  0  0  0  0  0
   14.7969   -9.1161   -5.5249 C   0  0  0  0  0  0  0  0  0  0  0  0
   15.4256   -9.8185   -4.4939 C   0  0  0  0  0  0  0  0  0  0  0  0
   14.2533   -7.0723   -6.6693 O   0  0  0  0  0  0  0  0  0  0  0  0
   14.4388   -5.7086   -7.0486 C   0  0  0  0  0  0  0  0  0  0  0  0
   15.7301   -5.5537   -7.8768 C   0  0  0  0  0  0  0  0  0  0  0  0
   16.5143   -6.8007   -8.0059 N   0  0  0  0  0  0  0  0  0  0  0  0
   16.7027   -7.5177   -6.7246 C   0  0  0  0  0  0  0  0  0  0  0  0
   17.3849   -8.8687   -6.9551 C   0  0  0  0  0  0  0  0  0  0  0  0
   16.5304   -9.7827   -7.8539 C   0  0  0  0  0  0  0  0  0  0  0  0
   15.5515   -9.0021   -8.7487 C   0  0  0  0  0  0  0  0  0  0  0  0
   16.1372   -7.6463   -9.1678 C   0  0  0  0  0  0  0  0  0  0  0  0
   18.3037   -8.3869   -1.9599 H   0  0  0  0  0  0  0  0  0  0  0  0
   17.6066  -10.5520   -2.7778 H   0  0  0  0  0  0  0  0  0  0  0  0
   14.3201  -12.5805   -0.7644 H   0  0  0  0  0  0  0  0  0  0  0  0
   14.6087  -13.7872    1.3691 H   0  0  0  0  0  0  0  0  0  0  0  0
   17.3294  -13.2276    3.7417 H   0  0  0  0  0  0  0  0  0  0  0  0
   18.1774  -11.5355    2.1693 H   0  0  0  0  0  0  0  0  0  0  0  0
   17.9753   -6.1676   -0.9087 H   0  0  0  0  0  0  0  0  0  0  0  0
   16.4588   -4.5441    0.0876 H   0  0  0  0  0  0  0  0  0  0  0  0
   14.2418   -4.0542    1.0603 H   0  0  0  0  0  0  0  0  0  0  0  0
   13.4246   -7.5643    0.4651 H   0  0  0  0  0  0  0  0  0  0  0  0
   14.9368   -9.2220   -0.5308 H   0  0  0  0  0  0  0  0  0  0  0  0
   16.8507   -7.1883   -2.8612 H   0  0  0  0  0  0  0  0  0  0  0  0
   15.7612   -5.9613   -4.6636 H   0  0  0  0  0  0  0  0  0  0  0  0
   14.2126   -9.6569   -6.2588 H   0  0  0  0  0  0  0  0  0  0  0  0
   15.3033  -10.8932   -4.4409 H   0  0  0  0  0  0  0  0  0  0  0  0
   13.5666   -5.4202   -7.6677 H   0  0  0  0  0  0  0  0  0  0  0  0
   14.4315   -5.0583   -6.1504 H   0  0  0  0  0  0  0  0  0  0  0  0
   15.4806   -5.1829   -8.8935 H   0  0  0  0  0  0  0  0  0  0  0  0
   16.3617   -4.7660   -7.4105 H   0  0  0  0  0  0  0  0  0  0  0  0
   17.3414   -6.9050   -6.0521 H   0  0  0  0  0  0  0  0  0  0  0  0
   15.7349   -7.6975   -6.2118 H   0  0  0  0  0  0  0  0  0  0  0  0
   18.3717   -8.6922   -7.4371 H   0  0  0  0  0  0  0  0  0  0  0  0
   17.5689   -9.3677   -5.9790 H   0  0  0  0  0  0  0  0  0  0  0  0
   15.9479  -10.4867   -7.2204 H   0  0  0  0  0  0  0  0  0  0  0  0
   17.2066  -10.3930   -8.4916 H   0  0  0  0  0  0  0  0  0  0  0  0
   15.3130   -9.6026   -9.6530 H   0  0  0  0  0  0  0  0  0  0  0  0
   14.6012   -8.8321   -8.1979 H   0  0  0  0  0  0  0  0  0  0  0  0
   17.0508   -7.8303   -9.7730 H   0  0  0  0  0  0  0  0  0  0  0  0
   15.4204   -7.1309   -9.8430 H   0  0  0  0  0  0  0  0  0  0  0  0
  1  2  1  0
  2  3  1  0
  3  4  1  0
  4  5  4  0
  5  6  4  0
  6  7  4  0
  7  8  1  0
  7  9  4  0
  4 10  4  0
  9 10  4  0
  1 11  1  0
 10 11  1  0
  1 12  1  0
 12 13  4  0
 13 14  4  0
 14 15  4  0
 15 16  1  0
 15 17  4  0
 12 18  4  0
 17 18  4  0
  2 19  1  0
 19 20  4  0
 20 21  4  0
 21 22  4  0
 22 23  4  0
 19 24  4  0
 23 24  4  0
 22 25  1  0
 25 26  1  0
 26 27  1  0
 27 28  1  0
 28 29  1  0
 29 30  1  0
 30 31  1  0
 31 32  1  0
 28 33  1  0
 32 33  1  0
  1 34  1  6
  2 35  1  6
  5 36  1  0
  6 37  1  0
  8 38  1  0
  9 39  1  0
 13 40  1  0
 14 41  1  0
 16 42  1  0
 17 43  1  0
 18 44  1  0
 20 45  1  0
 21 46  1  0
 23 47  1  0
 24 48  1  0
 26 49  1  0
 26 50  1  0
 27 51  1  0
 27 52  1  0
 29 53  1  0
 29 54  1  0
 30 55  1  0
 30 56  1  0
 31 57  1  0
 31 58  1  0
 32 59  1  0
 32 60  1  0
 33 61  1  0
 33 62  1  0
M  END
