1OPK_P16_A_2
     RDKit          3D

 29 32  0  0  0  0  0  0  0  0999 V2000
   49.3692   18.9721   15.0576 O   0  0  0  0  0  0  0  0  0  0  0  0
   49.9136   17.9786   14.2373 C   0  0  0  0  0  0  0  0  0  0  0  0
   49.3699   16.6241   14.5480 C   0  0  0  0  0  0  0  0  0  0  0  0
   50.1160   15.4744   14.4872 C   0  0  0  0  0  0  0  0  0  0  0  0
   49.5020   14.2769   14.8000 C   0  0  0  0  0  0  0  0  0  0  0  0
   48.1570   14.2116   15.1717 C   0  0  0  0  0  0  0  0  0  0  0  0
   47.4125   15.3575   15.2321 C   0  0  0  0  0  0  0  0  0  0  0  0
   46.0419   15.3923   15.5976 N   0  0  0  0  0  0  0  0  0  0  0  0
   45.5026   16.3028   16.5450 C   0  0  0  0  0  0  0  0  0  0  0  0
   44.2497   16.1961   17.0279 N   0  0  0  0  0  0  0  0  0  0  0  0
   43.8260   17.1241   17.9221 C   0  0  0  0  0  0  0  0  0  0  0  0
   44.6368   18.1519   18.3365 C   0  0  0  0  0  0  0  0  0  0  0  0
   44.2382   19.1212   19.2472 C   0  0  0  0  0  0  0  0  0  0  0  0
   45.1173   20.1220   19.6059 C   0  0  0  0  0  0  0  0  0  0  0  0
   46.4062   20.1516   19.0481 C   0  0  0  0  0  0  0  0  0  0  0  0
   47.2229   21.0690   19.3719 O   0  0  0  0  0  0  0  0  0  0  0  0
   46.7540   19.1986   18.1729 N   0  0  0  0  0  0  0  0  0  0  0  0
   45.9065   18.2203   17.8167 C   0  0  0  0  0  0  0  0  0  0  0  0
   46.3404   17.3095   16.9313 N   0  0  0  0  0  0  0  0  0  0  0  0
   48.0976   19.2306   17.5908 C   0  0  0  0  0  0  0  0  0  0  0  0
   44.8108   21.1823   20.5374 C   0  0  0  0  0  0  0  0  0  0  0  0
   44.9908   21.0255   21.9027 C   0  0  0  0  0  0  0  0  0  0  0  0
   45.6046   19.4945   22.5376 Cl  0  0  0  0  0  0  0  0  0  0  0  0
   44.6791   22.0850   22.7234 C   0  0  0  0  0  0  0  0  0  0  0  0
   44.1983   23.2825   22.2233 C   0  0  0  0  0  0  0  0  0  0  0  0
   44.0168   23.4413   20.8578 C   0  0  0  0  0  0  0  0  0  0  0  0
   44.3288   22.3761   20.0180 C   0  0  0  0  0  0  0  0  0  0  0  0
   44.0834   22.6096   18.2963 Cl  0  0  0  0  0  0  0  0  0  0  0  0
   48.0470   16.5551   14.9138 C   0  0  0  0  0  0  0  0  0  0  0  0
  1  2  1  0
  2  3  1  0
  3  4  2  0
  4  5  1  0
  5  6  2  0
  6  7  1  0
  7  8  1  0
  8  9  1  0
  9 10  2  0
 10 11  1  0
 11 12  2  0
 12 13  1  0
 13 14  2  0
 14 15  1  0
 15 16  2  0
 15 17  1  0
 12 18  1  0
 17 18  1  0
  9 19  1  0
 18 19  2  0
 17 20  1  0
 14 21  1  0
 21 22  2  0
 22 23  1  0
 22 24  1  0
 24 25  2  0
 25 26  1  0
 21 27  1  0
 26 27  2  0
 27 28  1  0
  3 29  1  0
  7 29  2  0
M  END
$$$$
