1OPK_P16_A_2
     RDKit          3D

 29 32  0  0  0  0  0  0  0  0999 V2000
   27.8713   20.6498   -9.5049 O   0  0  0  0  0  0  0  0  0  0  0  0
   28.6010   19.9953   -8.5071 C   0  0  0  0  0  0  0  0  0  0  0  0
   29.5162   20.9184   -7.7742 C   0  0  0  0  0  0  0  0  0  0  0  0
   29.0973   22.0676   -7.1530 C   0  0  0  0  0  0  0  0  0  0  0  0
   30.0387   22.8422   -6.5030 C   0  0  0  0  0  0  0  0  0  0  0  0
   31.3890   22.4863   -6.4648 C   0  0  0  0  0  0  0  0  0  0  0  0
   31.8073   21.3409   -7.0845 C   0  0  0  0  0  0  0  0  0  0  0  0
   33.1551   20.8973   -7.1013 N   0  0  0  0  0  0  0  0  0  0  0  0
   34.2519   21.6953   -6.6797 C   0  0  0  0  0  0  0  0  0  0  0  0
   34.0962   22.9006   -6.0989 N   0  0  0  0  0  0  0  0  0  0  0  0
   35.2094   23.5891   -5.7421 C   0  0  0  0  0  0  0  0  0  0  0  0
   36.4695   23.0883   -5.9587 C   0  0  0  0  0  0  0  0  0  0  0  0
   37.6314   23.7638   -5.6101 C   0  0  0  0  0  0  0  0  0  0  0  0
   38.8580   23.1877   -5.8677 C   0  0  0  0  0  0  0  0  0  0  0  0
   38.9212   21.9244   -6.4788 C   0  0  0  0  0  0  0  0  0  0  0  0
   40.0458   21.3855   -6.7201 O   0  0  0  0  0  0  0  0  0  0  0  0
   37.7780   21.3038   -6.8000 N   0  0  0  0  0  0  0  0  0  0  0  0
   36.5791   21.8553   -6.5542 C   0  0  0  0  0  0  0  0  0  0  0  0
   35.4871   21.1618   -6.9126 N   0  0  0  0  0  0  0  0  0  0  0  0
   37.8445   19.9872   -7.4382 C   0  0  0  0  0  0  0  0  0  0  0  0
   40.1286   23.7985   -5.5538 C   0  0  0  0  0  0  0  0  0  0  0  0
   40.5582   23.9522   -4.2451 C   0  0  0  0  0  0  0  0  0  0  0  0
   39.5358   23.3978   -2.9142 Cl  0  0  0  0  0  0  0  0  0  0  0  0
   41.7834   24.5404   -4.0299 C   0  0  0  0  0  0  0  0  0  0  0  0
   42.5815   24.9739   -5.0742 C   0  0  0  0  0  0  0  0  0  0  0  0
   42.1534   24.8217   -6.3842 C   0  0  0  0  0  0  0  0  0  0  0  0
   40.9156   24.2280   -6.6137 C   0  0  0  0  0  0  0  0  0  0  0  0
   40.4030   24.0547   -8.2830 Cl  0  0  0  0  0  0  0  0  0  0  0  0
   30.8456   20.5723   -7.7345 C   0  0  0  0  0  0  0  0  0  0  0  0
  1  2  1  0
  2  3  1  0
  3  4  2  0
  4  5  1  0
  5  6  2  0
  6  7  1  0
  7  8  1  0
  8  9  1  0
  9 10  2  0
 10 11  1  0
 11 12  2  0
 12 13  1  0
 13 14  2  0
 14 15  1  0
 15 16  2  0
 15 17  1  0
 12 18  1  0
 17 18  1  0
  9 19  1  0
 18 19  2  0
 17 20  1  0
 14 21  1  0
 21 22  2  0
 22 23  1  0
 22 24  1  0
 24 25  2  0
 25 26  1  0
 21 27  1  0
 26 27  2  0
 27 28  1  0
  3 29  1  0
  7 29  2  0
M  END
$$$$
