1OPK_P16_A_2
     RDKit          3D

 29 32  0  0  0  0  0  0  0  0999 V2000
   36.0754    1.1504   16.5537 O   0  0  0  0  0  0  0  0  0  0  0  0
   37.1891    1.8608   17.0135 C   0  0  0  0  0  0  0  0  0  0  0  0
   37.0637    2.2467   18.4496 C   0  0  0  0  0  0  0  0  0  0  0  0
   36.5727    1.4106   19.4201 C   0  0  0  0  0  0  0  0  0  0  0  0
   36.5065    1.8800   20.7179 C   0  0  0  0  0  0  0  0  0  0  0  0
   36.9227    3.1691   21.0591 C   0  0  0  0  0  0  0  0  0  0  0  0
   37.4119    4.0033   20.0918 C   0  0  0  0  0  0  0  0  0  0  0  0
   37.8574    5.3275   20.3401 N   0  0  0  0  0  0  0  0  0  0  0  0
   37.3599    6.4671   19.6537 C   0  0  0  0  0  0  0  0  0  0  0  0
   37.7575    7.7219   19.9397 N   0  0  0  0  0  0  0  0  0  0  0  0
   37.2135    8.7438   19.2325 C   0  0  0  0  0  0  0  0  0  0  0  0
   36.2813    8.5260   18.2480 C   0  0  0  0  0  0  0  0  0  0  0  0
   35.7007    9.5454   17.5053 C   0  0  0  0  0  0  0  0  0  0  0  0
   34.7686    9.2367   16.5364 C   0  0  0  0  0  0  0  0  0  0  0  0
   34.4158    7.8961   16.3093 C   0  0  0  0  0  0  0  0  0  0  0  0
   33.5586    7.6017   15.4193 O   0  0  0  0  0  0  0  0  0  0  0  0
   34.9983    6.9406   17.0461 N   0  0  0  0  0  0  0  0  0  0  0  0
   35.9063    7.2297   17.9916 C   0  0  0  0  0  0  0  0  0  0  0  0
   36.4357    6.2078   18.6826 N   0  0  0  0  0  0  0  0  0  0  0  0
   34.6292    5.5431   16.8096 C   0  0  0  0  0  0  0  0  0  0  0  0
   34.0981   10.2122   15.7088 C   0  0  0  0  0  0  0  0  0  0  0  0
   34.5953   10.5782   14.4680 C   0  0  0  0  0  0  0  0  0  0  0  0
   36.0892    9.8472   13.8700 Cl  0  0  0  0  0  0  0  0  0  0  0  0
   33.8952   11.5118   13.7389 C   0  0  0  0  0  0  0  0  0  0  0  0
   32.7258   12.0827   14.2100 C   0  0  0  0  0  0  0  0  0  0  0  0
   32.2269   11.7185   15.4515 C   0  0  0  0  0  0  0  0  0  0  0  0
   32.9270   10.7750   16.1978 C   0  0  0  0  0  0  0  0  0  0  0  0
   32.2699   10.3402   17.7657 Cl  0  0  0  0  0  0  0  0  0  0  0  0
   37.4716    3.5142   18.7897 C   0  0  0  0  0  0  0  0  0  0  0  0
  1  2  1  0
  2  3  1  0
  3  4  2  0
  4  5  1  0
  5  6  2  0
  6  7  1  0
  7  8  1  0
  8  9  1  0
  9 10  2  0
 10 11  1  0
 11 12  2  0
 12 13  1  0
 13 14  2  0
 14 15  1  0
 15 16  2  0
 15 17  1  0
 12 18  1  0
 17 18  1  0
  9 19  1  0
 18 19  2  0
 17 20  1  0
 14 21  1  0
 21 22  2  0
 22 23  1  0
 22 24  1  0
 24 25  2  0
 25 26  1  0
 21 27  1  0
 26 27  2  0
 27 28  1  0
  3 29  1  0
  7 29  2  0
M  END
$$$$
