1OPK_P16_A_2
     RDKit          3D

 29 32  0  0  0  0  0  0  0  0999 V2000
   34.0895    2.5572   26.5376 O   0  0  0  0  0  0  0  0  0  0  0  0
   33.3306    3.4206   25.7407 C   0  0  0  0  0  0  0  0  0  0  0  0
   32.8643    2.7692   24.4817 C   0  0  0  0  0  0  0  0  0  0  0  0
   32.0745    1.6479   24.4547 C   0  0  0  0  0  0  0  0  0  0  0  0
   31.7040    1.1362   23.2260 C   0  0  0  0  0  0  0  0  0  0  0  0
   32.1100    1.7270   22.0271 C   0  0  0  0  0  0  0  0  0  0  0  0
   32.8979    2.8448   22.0533 C   0  0  0  0  0  0  0  0  0  0  0  0
   33.3606    3.5143   20.8909 N   0  0  0  0  0  0  0  0  0  0  0  0
   33.4099    4.9281   20.7638 C   0  0  0  0  0  0  0  0  0  0  0  0
   34.0454    5.5476   19.7505 N   0  0  0  0  0  0  0  0  0  0  0  0
   34.0431    6.9039   19.7259 C   0  0  0  0  0  0  0  0  0  0  0  0
   33.4159    7.6436   20.6981 C   0  0  0  0  0  0  0  0  0  0  0  0
   33.3942    9.0319   20.7084 C   0  0  0  0  0  0  0  0  0  0  0  0
   32.7426    9.6957   21.7270 C   0  0  0  0  0  0  0  0  0  0  0  0
   32.1071    8.9630   22.7431 C   0  0  0  0  0  0  0  0  0  0  0  0
   31.5044    9.5650   23.6853 O   0  0  0  0  0  0  0  0  0  0  0  0
   32.1497    7.6246   22.6983 N   0  0  0  0  0  0  0  0  0  0  0  0
   32.7811    6.9684   21.7120 C   0  0  0  0  0  0  0  0  0  0  0  0
   32.7743    5.6266   21.7500 N   0  0  0  0  0  0  0  0  0  0  0  0
   31.4879    6.8611   23.7587 C   0  0  0  0  0  0  0  0  0  0  0  0
   32.6595   11.1330   21.8423 C   0  0  0  0  0  0  0  0  0  0  0  0
   33.4267   11.8347   22.7588 C   0  0  0  0  0  0  0  0  0  0  0  0
   34.5357   10.9645   23.8250 Cl  0  0  0  0  0  0  0  0  0  0  0  0
   33.2922   13.2034   22.8036 C   0  0  0  0  0  0  0  0  0  0  0  0
   32.4226   13.8819   21.9677 C   0  0  0  0  0  0  0  0  0  0  0  0
   31.6536   13.1818   21.0506 C   0  0  0  0  0  0  0  0  0  0  0  0
   31.7814   11.7969   20.9964 C   0  0  0  0  0  0  0  0  0  0  0  0
   30.7906   10.9421   19.8273 Cl  0  0  0  0  0  0  0  0  0  0  0  0
   33.2618    3.3470   23.2998 C   0  0  0  0  0  0  0  0  0  0  0  0
  1  2  1  0
  2  3  1  0
  3  4  2  0
  4  5  1  0
  5  6  2  0
  6  7  1  0
  7  8  1  0
  8  9  1  0
  9 10  2  0
 10 11  1  0
 11 12  2  0
 12 13  1  0
 13 14  2  0
 14 15  1  0
 15 16  2  0
 15 17  1  0
 12 18  1  0
 17 18  1  0
  9 19  1  0
 18 19  2  0
 17 20  1  0
 14 21  1  0
 21 22  2  0
 22 23  1  0
 22 24  1  0
 24 25  2  0
 25 26  1  0
 21 27  1  0
 26 27  2  0
 27 28  1  0
  3 29  1  0
  7 29  2  0
M  END
$$$$
