1OPK_P16_A_2
     RDKit          3D

 29 32  0  0  0  0  0  0  0  0999 V2000
   25.7529   16.0853   11.7010 O   0  0  0  0  0  0  0  0  0  0  0  0
   26.4901   16.6228   10.6408 C   0  0  0  0  0  0  0  0  0  0  0  0
   27.9381   16.2706   10.7193 C   0  0  0  0  0  0  0  0  0  0  0  0
   28.4378   15.2921   11.5409 C   0  0  0  0  0  0  0  0  0  0  0  0
   29.7987   15.0545   11.5251 C   0  0  0  0  0  0  0  0  0  0  0  0
   30.6653   15.7783   10.7026 C   0  0  0  0  0  0  0  0  0  0  0  0
   30.1677   16.7543    9.8836 C   0  0  0  0  0  0  0  0  0  0  0  0
   30.9670   17.5417    9.0149 N   0  0  0  0  0  0  0  0  0  0  0  0
   30.8386   18.9506    8.8879 C   0  0  0  0  0  0  0  0  0  0  0  0
   31.4794   19.6587    7.9380 N   0  0  0  0  0  0  0  0  0  0  0  0
   31.2981   21.0028    7.9084 C   0  0  0  0  0  0  0  0  0  0  0  0
   30.4876   21.6430    8.8133 C   0  0  0  0  0  0  0  0  0  0  0  0
   30.2794   23.0158    8.8164 C   0  0  0  0  0  0  0  0  0  0  0  0
   29.4505   23.5773    9.7653 C   0  0  0  0  0  0  0  0  0  0  0  0
   28.8246   22.7569   10.7184 C   0  0  0  0  0  0  0  0  0  0  0  0
   28.0595   23.2644   11.5963 O   0  0  0  0  0  0  0  0  0  0  0  0
   29.0499   21.4366   10.6828 N   0  0  0  0  0  0  0  0  0  0  0  0
   29.8548   20.8798    9.7640 C   0  0  0  0  0  0  0  0  0  0  0  0
   30.0239   19.5488    9.8061 N   0  0  0  0  0  0  0  0  0  0  0  0
   28.3979   20.5818   11.6775 C   0  0  0  0  0  0  0  0  0  0  0  0
   29.1652   24.9895    9.8669 C   0  0  0  0  0  0  0  0  0  0  0  0
   28.0084   25.5379    9.3358 C   0  0  0  0  0  0  0  0  0  0  0  0
   26.8448   24.4987    8.5053 Cl  0  0  0  0  0  0  0  0  0  0  0  0
   27.8084   26.8918    9.4781 C   0  0  0  0  0  0  0  0  0  0  0  0
   28.7217   27.7030   10.1287 C   0  0  0  0  0  0  0  0  0  0  0  0
   29.8800   27.1566   10.6601 C   0  0  0  0  0  0  0  0  0  0  0  0
   30.0927   25.7880   10.5221 C   0  0  0  0  0  0  0  0  0  0  0  0
   31.5705   25.1304   11.2026 Cl  0  0  0  0  0  0  0  0  0  0  0  0
   28.7943   16.9805    9.9121 C   0  0  0  0  0  0  0  0  0  0  0  0
  1  2  1  0
  2  3  1  0
  3  4  2  0
  4  5  1  0
  5  6  2  0
  6  7  1  0
  7  8  1  0
  8  9  1  0
  9 10  2  0
 10 11  1  0
 11 12  2  0
 12 13  1  0
 13 14  2  0
 14 15  1  0
 15 16  2  0
 15 17  1  0
 12 18  1  0
 17 18  1  0
  9 19  1  0
 18 19  2  0
 17 20  1  0
 14 21  1  0
 21 22  2  0
 22 23  1  0
 22 24  1  0
 24 25  2  0
 25 26  1  0
 21 27  1  0
 26 27  2  0
 27 28  1  0
  3 29  1  0
  7 29  2  0
M  END
$$$$
