1OPK_P16_A_2
     RDKit          3D

 29 32  0  0  0  0  0  0  0  0999 V2000
   32.7740    7.3977    2.2374 O   0  0  0  0  0  0  0  0  0  0  0  0
   32.4875    8.4776    3.0789 C   0  0  0  0  0  0  0  0  0  0  0  0
   33.1309    9.7429    2.6187 C   0  0  0  0  0  0  0  0  0  0  0  0
   33.7048    9.8965    1.3821 C   0  0  0  0  0  0  0  0  0  0  0  0
   34.2688   11.1181    1.0681 C   0  0  0  0  0  0  0  0  0  0  0  0
   34.2676   12.1855    1.9692 C   0  0  0  0  0  0  0  0  0  0  0  0
   33.6960   12.0328    3.2024 C   0  0  0  0  0  0  0  0  0  0  0  0
   33.6466   13.0565    4.1839 N   0  0  0  0  0  0  0  0  0  0  0  0
   32.4789   13.3813    4.9245 C   0  0  0  0  0  0  0  0  0  0  0  0
   32.3202   14.5605    5.5558 N   0  0  0  0  0  0  0  0  0  0  0  0
   31.1709   14.7688    6.2458 C   0  0  0  0  0  0  0  0  0  0  0  0
   30.1841   13.8162    6.3111 C   0  0  0  0  0  0  0  0  0  0  0  0
   28.9964   13.9916    7.0088 C   0  0  0  0  0  0  0  0  0  0  0  0
   28.0596   12.9792    7.0247 C   0  0  0  0  0  0  0  0  0  0  0  0
   28.3142   11.7818    6.3358 C   0  0  0  0  0  0  0  0  0  0  0  0
   27.4577   10.8437    6.3444 O   0  0  0  0  0  0  0  0  0  0  0  0
   29.4716   11.6504    5.6738 N   0  0  0  0  0  0  0  0  0  0  0  0
   30.3904   12.6289    5.6518 C   0  0  0  0  0  0  0  0  0  0  0  0
   31.5221   12.4079    4.9646 N   0  0  0  0  0  0  0  0  0  0  0  0
   29.7370   10.4012    4.9566 C   0  0  0  0  0  0  0  0  0  0  0  0
   26.7948   13.0485    7.7188 C   0  0  0  0  0  0  0  0  0  0  0  0
   25.6507   13.5265    7.0996 C   0  0  0  0  0  0  0  0  0  0  0  0
   25.7239   14.0742    5.4208 Cl  0  0  0  0  0  0  0  0  0  0  0  0
   24.4839   13.5565    7.8284 C   0  0  0  0  0  0  0  0  0  0  0  0
   24.4297   13.1272    9.1429 C   0  0  0  0  0  0  0  0  0  0  0  0
   25.5734   12.6494    9.7645 C   0  0  0  0  0  0  0  0  0  0  0  0
   26.7594   12.6144    9.0369 C   0  0  0  0  0  0  0  0  0  0  0  0
   28.1883   12.0079    9.8553 Cl  0  0  0  0  0  0  0  0  0  0  0  0
   33.1324   10.7956    3.5022 C   0  0  0  0  0  0  0  0  0  0  0  0
  1  2  1  0
  2  3  1  0
  3  4  2  0
  4  5  1  0
  5  6  2  0
  6  7  1  0
  7  8  1  0
  8  9  1  0
  9 10  2  0
 10 11  1  0
 11 12  2  0
 12 13  1  0
 13 14  2  0
 14 15  1  0
 15 16  2  0
 15 17  1  0
 12 18  1  0
 17 18  1  0
  9 19  1  0
 18 19  2  0
 17 20  1  0
 14 21  1  0
 21 22  2  0
 22 23  1  0
 22 24  1  0
 24 25  2  0
 25 26  1  0
 21 27  1  0
 26 27  2  0
 27 28  1  0
  3 29  1  0
  7 29  2  0
M  END
$$$$
