1OPK_P16_A_2
     RDKit          3D

 29 32  0  0  0  0  0  0  0  0999 V2000
   50.2236   18.4346   13.9969 O   0  0  0  0  0  0  0  0  0  0  0  0
   50.2610   17.7289   15.2040 C   0  0  0  0  0  0  0  0  0  0  0  0
   49.5568   16.4162   15.1168 C   0  0  0  0  0  0  0  0  0  0  0  0
   50.1759   15.2448   14.7608 C   0  0  0  0  0  0  0  0  0  0  0  0
   49.4188   14.0899   14.7171 C   0  0  0  0  0  0  0  0  0  0  0  0
   48.0558   14.0884   15.0230 C   0  0  0  0  0  0  0  0  0  0  0  0
   47.4378   15.2560   15.3775 C   0  0  0  0  0  0  0  0  0  0  0  0
   46.0605   15.3549   15.7043 N   0  0  0  0  0  0  0  0  0  0  0  0
   45.5449   16.2510   16.6783 C   0  0  0  0  0  0  0  0  0  0  0  0
   44.3164   16.1176   17.2142 N   0  0  0  0  0  0  0  0  0  0  0  0
   43.9134   17.0336   18.1302 C   0  0  0  0  0  0  0  0  0  0  0  0
   44.7210   18.0758   18.5139 C   0  0  0  0  0  0  0  0  0  0  0  0
   44.3431   19.0335   19.4455 C   0  0  0  0  0  0  0  0  0  0  0  0
   45.2170   20.0502   19.7705 C   0  0  0  0  0  0  0  0  0  0  0  0
   46.4797   20.1076   19.1578 C   0  0  0  0  0  0  0  0  0  0  0  0
   47.2915   21.0398   19.4504 O   0  0  0  0  0  0  0  0  0  0  0  0
   46.8081   19.1649   18.2640 N   0  0  0  0  0  0  0  0  0  0  0  0
   45.9655   18.1713   17.9402 C   0  0  0  0  0  0  0  0  0  0  0  0
   46.3786   17.2727   17.0327 N   0  0  0  0  0  0  0  0  0  0  0  0
   48.1245   19.2259   17.6247 C   0  0  0  0  0  0  0  0  0  0  0  0
   44.9302   21.1007   20.7193 C   0  0  0  0  0  0  0  0  0  0  0  0
   45.1799   20.9454   22.0737 C   0  0  0  0  0  0  0  0  0  0  0  0
   45.8609   19.4286   22.6731 Cl  0  0  0  0  0  0  0  0  0  0  0  0
   44.8826   21.9953   22.9120 C   0  0  0  0  0  0  0  0  0  0  0  0
   44.3490   23.1817   22.4397 C   0  0  0  0  0  0  0  0  0  0  0  0
   44.0977   23.3388   21.0852 C   0  0  0  0  0  0  0  0  0  0  0  0
   44.3947   22.2834   20.2278 C   0  0  0  0  0  0  0  0  0  0  0  0
   44.0605   22.5145   18.5207 Cl  0  0  0  0  0  0  0  0  0  0  0  0
   48.2156   16.4101   15.4165 C   0  0  0  0  0  0  0  0  0  0  0  0
  1  2  1  0
  2  3  1  0
  3  4  2  0
  4  5  1  0
  5  6  2  0
  6  7  1  0
  7  8  1  0
  8  9  1  0
  9 10  2  0
 10 11  1  0
 11 12  2  0
 12 13  1  0
 13 14  2  0
 14 15  1  0
 15 16  2  0
 15 17  1  0
 12 18  1  0
 17 18  1  0
  9 19  1  0
 18 19  2  0
 17 20  1  0
 14 21  1  0
 21 22  2  0
 22 23  1  0
 22 24  1  0
 24 25  2  0
 25 26  1  0
 21 27  1  0
 26 27  2  0
 27 28  1  0
  3 29  1  0
  7 29  2  0
M  END
$$$$
