7O0N_CDP_B_304
     RDKit          3D

 25 26  0  0  0  0  0  0  0  0999 V2000
    7.8589   22.5001   26.5839 O   0  0  0  0  0  0  0  0  0  0  0  0
    8.0155   23.1431   28.1246 P   0  0  1  0  0  5  0  0  0  0  0  0
    7.5440   24.5902   28.1280 O   0  0  0  0  0  0  0  0  0  0  0  0
    7.0422   22.2810   29.1776 O   0  0  0  0  0  0  0  0  0  0  0  0
    9.6332   23.1256   28.6205 O   0  0  0  0  0  0  0  0  0  0  0  0
    9.8748   24.0643   29.9837 P   0  0  2  0  0  5  0  0  0  0  0  0
    8.8984   23.5854   31.0475 O   0  0  0  0  0  0  0  0  0  0  0  0
    9.4807   25.6920   29.6862 O   0  0  0  0  0  0  0  0  0  0  0  0
   11.4629   23.9406   30.5326 O   0  0  0  0  0  0  0  0  0  0  0  0
   11.6936   22.6705   30.9927 C   0  0  0  0  0  0  0  0  0  0  0  0
   12.5751   21.8540   30.0915 C   0  0  1  0  0  0  0  0  0  0  0  0
   12.0815   21.7623   28.7904 O   0  0  0  0  0  0  0  0  0  0  0  0
   13.9558   22.4030   29.9335 C   0  0  1  0  0  0  0  0  0  0  0  0
   14.8900   21.7306   30.7372 O   0  0  0  0  0  0  0  0  0  0  0  0
   14.2883   22.0192   28.4853 C   0  0  1  0  0  0  0  0  0  0  0  0
   15.4461   21.2744   28.3972 O   0  0  0  0  0  0  0  0  0  0  0  0
   13.1292   21.1050   28.1809 C   0  0  2  0  0  0  0  0  0  0  0  0
   12.9567   20.7849   26.8066 N   0  0  0  0  0  0  0  0  0  0  0  0
   13.5468   19.6443   26.3461 C   0  0  0  0  0  0  0  0  0  0  0  0
   14.2158   18.9246   27.1480 O   0  0  0  0  0  0  0  0  0  0  0  0
   13.4483   19.2489   25.0705 N   0  0  0  0  0  0  0  0  0  0  0  0
   12.7574   19.9635   24.1766 C   0  0  0  0  0  0  0  0  0  0  0  0
   12.6982   19.4793   22.8408 N   0  0  0  0  0  0  0  0  0  0  0  0
   12.1477   21.1179   24.5968 C   0  0  0  0  0  0  0  0  0  0  0  0
   12.2630   21.5077   25.9213 C   0  0  0  0  0  0  0  0  0  0  0  0
  2  1  1  6
  2  3  2  0
  2  4  1  0
  2  5  1  0
  6  5  1  0
  6  7  2  0
  6  8  1  6
  6  9  1  0
 10  9  1  1
 11 10  1  0
 11 12  1  6
 11 13  1  0
 13 14  1  1
 13 15  1  0
 15 16  1  1
 12 17  1  0
 15 17  1  0
 17 18  1  6
 18 19  1  0
 19 20  2  0
 19 21  1  0
 21 22  2  0
 22 23  1  0
 22 24  1  0
 18 25  1  0
 24 25  2  0
M  END
$$$$
