7K41_VUA_A_2602
     RDKit          3D

 46 48  0  0  0  0  0  0  0  0999 V2000
   -8.0755  -14.5781   10.0225 N   0  0  0  0  0  0  0  0  0  0  0  0
   -7.2461  -10.7001    8.6922 N   0  0  0  0  0  0  0  0  0  0  0  0
   -3.9053  -15.6032   10.3712 C   0  0  0  0  0  0  0  0  0  0  0  0
   -6.2266  -14.9698   10.6749 C   0  0  0  0  0  0  0  0  0  0  0  0
   -7.9965  -12.2405   10.4753 C   0  0  0  0  0  0  0  0  0  0  0  0
   -8.2629  -13.5459   10.8838 C   0  0  0  0  0  0  0  0  0  0  0  0
   -5.2591  -15.7572   10.0280 C   0  0  0  0  0  0  0  0  0  0  0  0
   -7.6258  -14.3632    8.7578 C   0  0  0  0  0  0  0  0  0  0  0  0
   -8.0989   -9.5555    9.0411 C   0  0  1  0  0  0  0  0  0  0  0  0
   -5.8922   -8.2384    8.7590 C   0  0  1  0  0  0  0  0  0  0  0  0
   -5.6750  -16.7892    9.0119 C   0  0  2  0  0  0  0  0  0  0  0  0
   -4.4927  -13.8772   11.9660 C   0  0  0  0  0  0  0  0  0  0  0  0
   -3.5260  -14.6680   11.3387 C   0  0  0  0  0  0  0  0  0  0  0  0
   -5.8415  -14.0269   11.6324 C   0  0  0  0  0  0  0  0  0  0  0  0
   -7.5466  -12.0251    9.1659 C   0  0  0  0  0  0  0  0  0  0  0  0
   -7.2484   -8.3621    9.5064 C   0  0  1  0  0  0  0  0  0  0  0  0
   -5.8816   -9.0384    7.4434 C   0  0  2  0  0  0  0  0  0  0  0  0
   -6.1517  -10.5222    7.7277 C   0  0  1  0  0  0  0  0  0  0  0  0
   -5.5347   -6.7707    8.5016 C   0  0  2  0  0  0  0  0  0  0  0  0
   -6.1345  -16.1405    7.7024 C   0  0  1  0  0  0  0  0  0  0  0  0
   -7.3605  -13.0939    8.3447 N   0  0  0  0  0  0  0  0  0  0  0  0
   -7.4267  -15.4773    7.8782 N   0  0  0  0  0  0  0  0  0  0  0  0
   -3.1462  -16.2131    9.8969 H   0  0  0  0  0  0  0  0  0  0  0  0
   -7.2764  -15.0853   10.4371 H   0  0  0  0  0  0  0  0  0  0  0  0
   -8.1168  -11.4221   11.1728 H   0  0  0  0  0  0  0  0  0  0  0  0
   -8.6092  -13.7406   11.8898 H   0  0  0  0  0  0  0  0  0  0  0  0
   -8.6791   -9.2603    8.1394 H   0  0  0  0  0  0  0  0  0  0  0  0
   -8.8408   -9.8140    9.8258 H   0  0  0  0  0  0  0  0  0  0  0  0
   -5.0969   -8.6613    9.4143 H   0  0  0  0  0  0  0  0  0  0  0  0
   -6.4909  -17.4252    9.4207 H   0  0  0  0  0  0  0  0  0  0  0  0
   -4.8187  -17.4652    8.7966 H   0  0  0  0  0  0  0  0  0  0  0  0
   -4.1975  -13.1542   12.7153 H   0  0  0  0  0  0  0  0  0  0  0  0
   -2.4823  -14.5570   11.6028 H   0  0  0  0  0  0  0  0  0  0  0  0
   -6.5906  -13.4209   12.1258 H   0  0  0  0  0  0  0  0  0  0  0  0
   -7.8589   -7.4408    9.3803 H   0  0  0  0  0  0  0  0  0  0  0  0
   -7.0460   -8.4689   10.5946 H   0  0  0  0  0  0  0  0  0  0  0  0
   -4.8938   -8.9407    6.9413 H   0  0  0  0  0  0  0  0  0  0  0  0
   -6.6591   -8.6440    6.7525 H   0  0  0  0  0  0  0  0  0  0  0  0
   -5.2288  -10.9712    8.1520 H   0  0  0  0  0  0  0  0  0  0  0  0
   -6.3939  -11.0453    6.7772 H   0  0  0  0  0  0  0  0  0  0  0  0
   -6.0018   -6.1220    9.2731 H   0  0  0  0  0  0  0  0  0  0  0  0
   -5.9145   -6.4558    7.5061 H   0  0  0  0  0  0  0  0  0  0  0  0
   -4.4331   -6.6243    8.5296 H   0  0  0  0  0  0  0  0  0  0  0  0
   -5.3634  -15.4319    7.3292 H   0  0  0  0  0  0  0  0  0  0  0  0
   -6.2471  -16.9344    6.9333 H   0  0  0  0  0  0  0  0  0  0  0  0
   -8.2669  -15.9176    7.4391 H   0  0  0  0  0  0  0  0  0  0  0  0
  5  6  1  0
  1  6  2  0
  4  7  1  0
  3  7  2  0
  1  8  1  0
  2  9  1  0
  7 11  1  0
 12 13  2  0
  3 13  1  0
  4 14  2  0
 12 14  1  0
  2 15  1  0
  5 15  2  0
 10 16  1  0
  9 16  1  0
 10 17  1  0
 17 18  1  0
  2 18  1  0
 10 19  1  0
 11 20  1  0
 15 21  1  0
  8 21  2  0
 20 22  1  0
  8 22  1  0
  3 23  1  0
  4 24  1  0
  5 25  1  0
  6 26  1  0
  9 27  1  6
  9 28  1  0
 10 29  1  1
 11 30  1  1
 11 31  1  0
 12 32  1  0
 13 33  1  0
 14 34  1  0
 16 35  1  1
 16 36  1  0
 17 37  1  6
 17 38  1  0
 18 39  1  1
 18 40  1  0
 19 41  1  1
 19 42  1  0
 19 43  1  0
 20 44  1  6
 20 45  1  0
 22 46  1  0
M  END
