1X8X_TYR_A_952
     RDKit          3D

 13 13  0  0  0  0  0  0  0  0999 V2000
    6.8685   28.0118   15.0774 N   0  0  0  0  0  0  0  0  0  0  0  0
    6.7200   28.2695   16.5137 C   0  0  2  0  0  0  0  0  0  0  0  0
    5.2672   28.3128   16.7867 C   0  0  0  0  0  0  0  0  0  0  0  0
    4.4152   28.5064   15.8683 O   0  0  0  0  0  0  0  0  0  0  0  0
    7.4380   29.5614   16.8103 C   0  0  0  0  0  0  0  0  0  0  0  0
    8.8859   29.5232   16.6081 C   0  0  0  0  0  0  0  0  0  0  0  0
    9.6745   28.5850   17.2511 C   0  0  0  0  0  0  0  0  0  0  0  0
    9.5080   30.4316   15.7612 C   0  0  0  0  0  0  0  0  0  0  0  0
   11.0414   28.5137   17.0886 C   0  0  0  0  0  0  0  0  0  0  0  0
   10.8686   30.3645   15.5963 C   0  0  0  0  0  0  0  0  0  0  0  0
   11.6590   29.4315   16.2348 C   0  0  0  0  0  0  0  0  0  0  0  0
   13.0484   29.3772   16.0546 O   0  0  0  0  0  0  0  0  0  0  0  0
    4.7289   28.1445   18.0691 O   0  0  0  0  0  0  0  0  0  0  0  0
  2  1  1  6
  2  3  1  0
  3  4  2  0
  2  5  1  0
  5  6  1  6
  6  7  2  0
  6  8  1  0
  7  9  1  0
  8 10  2  0
  9 11  2  0
 10 11  1  0
 11 12  1  0
  3 13  1  0
M  END
$$$$
