7OSO_0V1_A_504
     RDKit          3D

 17 16  0  0  0  0  0  0  0  0999 V2000
    5.8613   -5.4794   -6.2839 C   0  0  0  0  0  0  0  0  0  0  0  0
    7.1831   -4.7311   -6.0541 C   0  0  1  0  0  0  0  0  0  0  0  0
    8.4305   -5.6233   -6.2430 C   0  0  0  0  0  0  0  0  0  0  0  0
    8.6307   -6.1054   -7.6873 C   0  0  0  0  0  0  0  0  0  0  0  0
    7.7184   -5.4671   -8.5389 O   0  0  0  0  0  0  0  0  0  0  0  0
    7.2384   -3.6234   -6.9162 O   0  0  0  0  0  0  0  0  0  0  0  0
    5.2212   -5.0180   -7.4436 O   0  0  0  0  0  0  0  0  0  0  0  0
    5.1949   -5.4027   -5.3942 H   0  0  0  0  0  0  0  0  0  0  0  0
    6.0863   -6.5585   -6.4212 H   0  0  0  0  0  0  0  0  0  0  0  0
    7.1774   -4.3713   -4.9983 H   0  0  0  0  0  0  0  0  0  0  0  0
    8.3715   -6.5028   -5.5663 H   0  0  0  0  0  0  0  0  0  0  0  0
    9.3252   -5.0389   -5.9358 H   0  0  0  0  0  0  0  0  0  0  0  0
    8.5080   -7.2102   -7.7540 H   0  0  0  0  0  0  0  0  0  0  0  0
    9.6543   -5.8518   -8.0305 H   0  0  0  0  0  0  0  0  0  0  0  0
    6.8430   -5.9158   -8.4058 H   0  0  0  0  0  0  0  0  0  0  0  0
    7.9338   -3.0125   -6.5563 H   0  0  0  0  0  0  0  0  0  0  0  0
    4.5949   -4.3014   -7.1615 H   0  0  0  0  0  0  0  0  0  0  0  0
  1  2  1  0
  2  3  1  0
  3  4  1  0
  4  5  1  0
  2  6  1  0
  1  7  1  0
  1  8  1  0
  1  9  1  0
  2 10  1  6
  3 11  1  0
  3 12  1  0
  4 13  1  0
  4 14  1  0
  5 15  1  0
  6 16  1  0
  7 17  1  0
M  END
