@<TRIPOS>MOLECULE
1J3J_CP6_A_609
 30 31 0 0 0
SMALL
GASTEIGER

@<TRIPOS>ATOM
      1 N          -0.2334    2.6948   -0.1803 N.ar    1  UNL1       -0.1995
      2 C          -1.0387    2.6600   -1.2711 C.ar    1  UNL1        0.2145
      3 C           0.3202    1.5641    0.3300 C.ar    1  UNL1        0.1293
      4 C           0.0571    0.3212   -0.2843 C.ar    1  UNL1        0.0430
      5 C          -0.7765    0.3085   -1.4263 C.ar    1  UNL1        0.0556
      6 N          -1.3053    1.4766   -1.8779 N.ar    1  UNL1       -0.2190
      7 C           0.6317   -0.9263    0.2609 C.ar    1  UNL1       -0.0128
      8 C           0.0709   -1.5206    1.4013 C.ar    1  UNL1       -0.0525
      9 C           0.6192   -2.6967    1.9217 C.ar    1  UNL1       -0.0428
     10 C           1.7331   -3.2818    1.3095 C.ar    1  UNL1        0.0410
     11 C           2.3000   -2.6876    0.1766 C.ar    1  UNL1       -0.0428
     12 C           1.7534   -1.5114   -0.3456 C.ar    1  UNL1       -0.0525
     13 N           1.1697    1.6704    1.4777 N.pl3   1  UNL1       -0.3425
     14 N          -1.6072    3.8654   -1.7772 N.pl3   1  UNL1       -0.3274
     15 C          -1.1680   -0.9657   -2.1307 C.3     1  UNL1       -0.0124
     16 C          -2.3917   -1.5959   -1.4742 C.3     1  UNL1       -0.0598
     17 CL          2.4199   -4.7574    1.9633 Cl      1  UNL1       -0.0835
     18 H          -0.7908   -1.0745    1.8827 H       1  UNL1        0.0624
     19 H           0.1787   -3.1514    2.7997 H       1  UNL1        0.0632
     20 H           3.1635   -3.1352   -0.2988 H       1  UNL1        0.0632
     21 H           2.2007   -1.0575   -1.2214 H       1  UNL1        0.0624
     22 H           1.6540    0.8437    1.8913 H       1  UNL1        0.1437
     23 H           1.3356    2.6035    1.9161 H       1  UNL1        0.1437
     24 H          -2.2291    3.8452   -2.6157 H       1  UNL1        0.1452
     25 H          -1.4070    4.7795   -1.3140 H       1  UNL1        0.1452
     26 H          -1.4084   -0.7398   -3.1923 H       1  UNL1        0.0326
     27 H          -0.3311   -1.6941   -2.1392 H       1  UNL1        0.0326
     28 H          -2.1719   -1.8682   -0.4208 H       1  UNL1        0.0233
     29 H          -3.2485   -0.8890   -1.4978 H       1  UNL1        0.0233
     30 H          -2.6757   -2.5170   -2.0253 H       1  UNL1        0.0233
@<TRIPOS>BOND
     1     1     2   ar
     2     1     3   ar
     3     3     4   ar
     4     4     5   ar
     5     2     6   ar
     6     5     6   ar
     7     4     7    1
     8     7     8   ar
     9     8     9   ar
    10     9    10   ar
    11    10    11   ar
    12     7    12   ar
    13    11    12   ar
    14     3    13    1
    15     2    14    1
    16     5    15    1
    17    15    16    1
    18    10    17    1
    19     8    18    1
    20     9    19    1
    21    11    20    1
    22    12    21    1
    23    13    22    1
    24    13    23    1
    25    14    24    1
    26    14    25    1
    27    15    26    1
    28    15    27    1
    29    16    28    1
    30    16    29    1
    31    16    30    1
