8DW5_FQ7_A_201
     RDKit          3D

 18 19  0  0  0  0  0  0  0  0999 V2000
   23.4352   11.2794    2.1634 C   0  0  0  0  0  0  0  0  0  0  0  0
   23.3349   12.6485    2.1740 C   0  0  0  0  0  0  0  0  0  0  0  0
   22.3655   13.2854    1.4394 C   0  0  0  0  0  0  0  0  0  0  0  0
   20.6402   10.4565   -0.1021 N   0  0  0  0  0  0  0  0  0  0  0  0
   20.5714   14.7916   -0.0128 O   0  0  0  0  0  0  0  0  0  0  0  0
   20.4645   13.3815   -0.0725 C   0  0  0  0  0  0  0  0  0  0  0  0
   19.5159   12.9703   -0.7624 O   0  0  0  0  0  0  0  0  0  0  0  0
   21.4337   12.6109    0.6480 C   0  0  0  0  0  0  0  0  0  0  0  0
   22.5099   10.5957    1.3761 C   0  0  0  0  0  0  0  0  0  0  0  0
   21.5383   11.2383    0.6409 C   0  0  0  0  0  0  0  0  0  0  0  0
   20.5828    9.0273   -0.0424 C   0  0  0  0  0  0  0  0  0  0  0  0
   20.3107    8.3134   -1.1987 C   0  0  0  0  0  0  0  0  0  0  0  0
   20.2092    6.9370   -1.2223 C   0  0  0  0  0  0  0  0  0  0  0  0
   19.8639    6.1394   -2.7290 Cl  0  0  0  0  0  0  0  0  0  0  0  0
   20.3913    6.2690   -0.0279 C   0  0  0  0  0  0  0  0  0  0  0  0
   20.6624    6.9198    1.1478 C   0  0  0  0  0  0  0  0  0  0  0  0
   20.8890    6.0433    2.6504 Cl  0  0  0  0  0  0  0  0  0  0  0  0
   20.7521    8.3058    1.1083 C   0  0  0  0  0  0  0  0  0  0  0  0
  1  2  2  0
  2  3  1  0
  5  6  1  0
  6  7  2  0
  6  8  1  0
  3  8  2  0
  1  9  1  0
  9 10  2  0
  4 10  1  0
  8 10  1  0
  4 11  1  0
 11 12  2  0
 12 13  1  0
 13 14  1  0
 13 15  2  0
 15 16  1  0
 16 17  1  0
 16 18  2  0
 11 18  1  0
M  END
$$$$
