1MMV_3AR_B_2785
     RDKit          3D

 15 14  0  0  0  0  0  0  0  0999 V2000
   20.8938    5.2333   58.5876 N   0  0  0  0  0  0  0  0  0  0  0  0
   19.4195    4.9712   58.8496 C   0  0  2  0  0  0  0  0  0  0  0  0
   19.0612    3.8547   57.9731 C   0  0  0  0  0  0  0  0  0  0  0  0
   18.1155    3.0486   58.1247 O   0  0  0  0  0  0  0  0  0  0  0  0
   18.8208    6.2955   58.6144 C   0  0  0  0  0  0  0  0  0  0  0  0
   19.2369    7.4921   59.3386 C   0  0  0  0  0  0  0  0  0  0  0  0
   18.6195    8.7990   58.9593 C   0  0  0  0  0  0  0  0  0  0  0  0
   19.1047    9.7622   59.9595 N   0  0  0  0  0  0  0  0  0  0  0  0
   19.4200   11.1030   59.6165 C   0  0  0  0  0  0  0  0  0  0  0  0
   19.9207   11.4323   58.3278 N   0  0  0  0  0  0  0  0  0  0  0  0
   19.2588   12.0448   60.4892 N   0  0  0  0  0  0  0  0  0  0  0  0
   21.1250   12.1488   58.0743 C   0  0  0  0  0  0  0  0  0  0  0  0
   21.4515   12.4770   56.6627 C   0  0  0  0  0  0  0  0  0  0  0  0
   22.7425   13.3143   56.7189 C   0  0  0  0  0  0  0  0  0  0  0  0
   19.8472    3.6308   56.8171 O   0  0  0  0  0  0  0  0  0  0  0  0
  2  1  1  6
  2  3  1  0
  3  4  2  0
  5  2  1  6
  5  6  1  0
  6  7  1  1
  7  8  1  6
  8  9  1  0
  9 10  1  0
  9 11  2  0
 12 10  1  1
 12 13  1  0
 13 14  1  6
  3 15  1  0
M  CHG  1  11   1
M  END
$$$$
