7BTT_F8R_A_1501
     RDKit          3D

 73 77  0  0  0  0  0  0  0  0999 V2000
   -0.2424   -0.5792   -1.7808 N   0  0  0  0  0  0  0  0  0  0  0  0
    0.0353   -0.9260   -0.4853 C   0  0  0  0  0  0  0  0  0  0  0  0
    1.1763   -3.1471   -0.3283 C   0  0  0  0  0  0  0  0  0  0  0  0
    2.0553   -5.1771   -1.3128 C   0  0  0  0  0  0  0  0  0  0  0  0
    0.3081   -3.9219    0.4763 C   0  0  0  0  0  0  0  0  0  0  0  0
   -0.7545   -3.6431    2.7232 C   0  0  0  0  0  0  0  0  0  0  0  0
    2.6458   -7.4053   -1.7324 C   0  0  0  0  0  0  0  0  0  0  0  0
    3.7841   -5.6436   -3.1753 C   0  0  0  0  0  0  0  0  0  0  0  0
    2.2576    4.8848   -4.4274 C   0  0  0  0  0  0  0  0  0  0  0  0
    1.1308    3.9692   -4.9162 C   0  0  1  0  0  0  0  0  0  0  0  0
    0.6623    1.0233   -4.6974 C   0  0  0  0  0  0  0  0  0  0  0  0
    1.5763    0.5858   -5.6743 C   0  0  0  0  0  0  0  0  0  0  0  0
    1.3125   -0.5508   -6.4402 C   0  0  0  0  0  0  0  0  0  0  0  0
    0.1329   -1.2659   -6.2492 C   0  0  0  0  0  0  0  0  0  0  0  0
   -0.7822   -0.8541   -5.2814 C   0  0  0  0  0  0  0  0  0  0  0  0
   -0.5264    0.2763   -4.4932 C   0  0  0  0  0  0  0  0  0  0  0  0
   -1.2620    0.2623   -2.1118 C   0  0  0  0  0  0  0  0  0  0  0  0
    2.0647   -3.7818   -1.2215 C   0  0  0  0  0  0  0  0  0  0  0  0
    1.2459   -5.9242   -0.5034 C   0  0  0  0  0  0  0  0  0  0  0  0
    0.3546   -5.3321    0.3899 C   0  0  0  0  0  0  0  0  0  0  0  0
    1.5132   -7.3763   -0.6822 C   0  0  0  0  0  0  0  0  0  0  0  0
    5.2507   -5.3981   -2.9515 C   0  0  0  0  0  0  0  0  0  0  0  0
    5.6226   -6.3114   -0.7430 C   0  0  0  0  0  0  0  0  0  0  0  0
    4.4466   -4.2242   -0.9820 C   0  0  0  0  0  0  0  0  0  0  0  0
   -1.7743    0.3772    0.2128 C   0  0  0  0  0  0  0  0  0  0  0  0
   -2.0499    0.7464   -1.0696 C   0  0  0  0  0  0  0  0  0  0  0  0
   -3.4858    1.7406    0.1837 C   0  0  0  0  0  0  0  0  0  0  0  0
   -2.6761    0.9988    1.0427 C   0  0  0  0  0  0  0  0  0  0  0  0
    1.4116    3.5155   -6.3557 C   0  0  0  0  0  0  0  0  0  0  0  0
   -1.4795    0.6291   -3.4811 N   0  0  0  0  0  0  0  0  0  0  0  0
    1.1937   -1.7169   -0.1923 N   0  0  0  0  0  0  0  0  0  0  0  0
    2.8962   -6.0113   -2.1036 N   0  0  0  0  0  0  0  0  0  0  0  0
    5.5173   -5.0743   -1.5341 N   0  0  0  0  0  0  0  0  0  0  0  0
   -0.7392   -0.4396    0.5311 N   0  0  0  0  0  0  0  0  0  0  0  0
   -3.0993    1.5855   -1.1060 N   0  0  0  0  0  4  0  0  0  0  0  0
   -0.5537   -3.2619    1.3663 O   0  0  0  0  0  0  0  0  0  0  0  0
    3.3177   -5.5102   -4.3387 O   0  0  0  0  0  0  0  0  0  0  0  0
    2.2057    2.4394   -2.9993 O   0  0  0  0  0  0  0  0  0  0  0  0
   -0.2135    2.7867   -2.9077 O   0  0  0  0  0  0  0  0  0  0  0  0
    0.9549    2.5462   -3.8235 S   0  0  1  0  0  6  0  0  0  0  0  0
    0.2058   -3.5957    3.2795 H   0  0  0  0  0  0  0  0  0  0  0  0
   -1.1723   -4.6709    2.7728 H   0  0  0  0  0  0  0  0  0  0  0  0
   -1.4756   -2.9428    3.1926 H   0  0  0  0  0  0  0  0  0  0  0  0
    3.5670   -7.8523   -1.3006 H   0  0  0  0  0  0  0  0  0  0  0  0
    2.3305   -7.9854   -2.6268 H   0  0  0  0  0  0  0  0  0  0  0  0
    2.3856    5.7412   -5.1229 H   0  0  0  0  0  0  0  0  0  0  0  0
    3.2163    4.3266   -4.3628 H   0  0  0  0  0  0  0  0  0  0  0  0
    2.0115    5.2947   -3.4262 H   0  0  0  0  0  0  0  0  0  0  0  0
    0.1863    4.5527   -4.8966 H   0  0  0  0  0  0  0  0  0  0  0  0
    2.4891    1.1252   -5.8727 H   0  0  0  0  0  0  0  0  0  0  0  0
    2.0225   -0.8733   -7.1909 H   0  0  0  0  0  0  0  0  0  0  0  0
   -0.0696   -2.1442   -6.8480 H   0  0  0  0  0  0  0  0  0  0  0  0
   -1.6898   -1.4246   -5.1323 H   0  0  0  0  0  0  0  0  0  0  0  0
    2.7533   -3.1869   -1.7987 H   0  0  0  0  0  0  0  0  0  0  0  0
   -0.2666   -5.9608    1.0130 H   0  0  0  0  0  0  0  0  0  0  0  0
    1.8473   -7.8277    0.2763 H   0  0  0  0  0  0  0  0  0  0  0  0
    0.6045   -7.8912   -1.0595 H   0  0  0  0  0  0  0  0  0  0  0  0
    5.5326   -4.5393   -3.5993 H   0  0  0  0  0  0  0  0  0  0  0  0
    5.8469   -6.2836   -3.2653 H   0  0  0  0  0  0  0  0  0  0  0  0
    6.4886   -6.9147   -1.0928 H   0  0  0  0  0  0  0  0  0  0  0  0
    5.8052   -6.0713    0.3266 H   0  0  0  0  0  0  0  0  0  0  0  0
    4.6968   -6.9252   -0.8261 H   0  0  0  0  0  0  0  0  0  0  0  0
    4.6924   -3.9315    0.0613 H   0  0  0  0  0  0  0  0  0  0  0  0
    4.3540   -3.2871   -1.5704 H   0  0  0  0  0  0  0  0  0  0  0  0
    3.4669   -4.7506   -0.9888 H   0  0  0  0  0  0  0  0  0  0  0  0
   -4.3107    2.3683    0.4926 H   0  0  0  0  0  0  0  0  0  0  0  0
   -2.7373    0.9373    2.1212 H   0  0  0  0  0  0  0  0  0  0  0  0
    0.6590    2.7760   -6.6946 H   0  0  0  0  0  0  0  0  0  0  0  0
    2.4162    3.0455   -6.4325 H   0  0  0  0  0  0  0  0  0  0  0  0
    1.3742    4.3883   -7.0417 H   0  0  0  0  0  0  0  0  0  0  0  0
   -2.4414    0.8926   -3.7917 H   0  0  0  0  0  0  0  0  0  0  0  0
    2.1133   -1.2306   -0.0957 H   0  0  0  0  0  0  0  0  0  0  0  0
   -3.5313    2.0372   -1.9421 H   0  0  0  0  0  0  0  0  0  0  0  0
  1  2  4  0
  3  5  4  0
  9 10  1  0
 11 12  4  0
 12 13  4  0
 13 14  4  0
 14 15  4  0
 15 16  4  0
 11 16  4  0
  1 17  4  0
  4 18  4  0
  3 18  4  0
  4 19  4  0
 19 20  4  0
  5 20  4  0
  7 21  1  0
 19 21  1  0
  8 22  1  0
 17 26  4  0
 25 26  4  0
 25 28  4  0
 27 28  4  0
 10 29  1  0
 16 30  1  0
 17 30  1  0
  3 31  1  0
  2 31  1  0
  7 32  1  0
  4 32  1  0
  8 32  1  0
 24 33  1  0
 22 33  1  0
 23 33  1  0
  2 34  4  0
 25 34  4  0
 26 35  4  0
 27 35  4  0
  6 36  1  0
  5 36  1  0
  8 37  2  0
 40 11  1  1
 39 40  2  0
 38 40  2  0
 10 40  1  0
  6 41  1  0
  6 42  1  0
  6 43  1  0
  7 44  1  0
  7 45  1  0
  9 46  1  0
  9 47  1  0
  9 48  1  0
 10 49  1  1
 12 50  1  0
 13 51  1  0
 14 52  1  0
 15 53  1  0
 18 54  1  0
 20 55  1  0
 21 56  1  0
 21 57  1  0
 22 58  1  0
 22 59  1  0
 23 60  1  0
 23 61  1  0
 23 62  1  0
 24 63  1  0
 24 64  1  0
 24 65  1  0
 27 66  1  0
 28 67  1  0
 29 68  1  0
 29 69  1  0
 29 70  1  0
 30 71  1  0
 31 72  1  0
 35 73  1  0
M  CHG  1  35   1
M  END
