7ZL5_IWE_AAA_303
     RDKit          3D

 34 36  0  0  0  0  0  0  0  0999 V2000
  -16.5994   35.0388   46.2883 N   0  0  0  0  0  4  0  0  0  0  0  0
  -17.8051   36.8366   41.5937 C   0  0  0  0  0  0  0  0  0  0  0  0
  -18.2535   37.3157   42.8074 C   0  0  0  0  0  0  0  0  0  0  0  0
  -17.7077   36.8624   44.0014 C   0  0  0  0  0  0  0  0  0  0  0  0
  -16.6764   35.8971   43.9546 C   0  0  0  0  0  0  0  0  0  0  0  0
  -15.9832   35.4225   45.1732 C   0  0  0  0  0  0  0  0  0  0  0  0
  -16.2657   35.4101   42.7123 C   0  0  0  0  0  0  0  0  0  0  0  0
  -19.1973   38.3715   45.3794 C   0  0  0  0  0  0  0  0  0  0  0  0
  -17.1993   34.5094   39.3472 O   0  0  0  0  0  0  0  0  0  0  0  0
  -20.4995   37.8554   44.8672 C   0  0  0  0  0  0  0  0  0  0  0  0
  -22.8238   37.0334   44.6096 C   0  0  0  0  0  0  0  0  0  0  0  0
  -22.2450   37.4448   43.4609 C   0  0  0  0  0  0  0  0  0  0  0  0
  -14.4546   34.5890   46.4643 N   0  0  0  0  0  0  0  0  0  0  0  0
  -20.9197   37.8988   43.6163 C   0  0  0  0  0  0  0  0  0  0  0  0
  -15.6314   34.5413   47.0467 N   0  0  0  0  0  0  0  0  0  0  0  0
  -18.6927   37.3404   40.1951 Cl  0  0  0  0  0  0  0  0  0  0  0  0
  -14.6562   35.1264   45.2679 N   0  0  0  0  0  0  0  0  0  0  0  0
  -16.8015   35.8682   41.5205 C   0  0  0  0  0  0  0  0  0  0  0  0
  -16.1279   35.2300   40.0074 S   0  0  1  0  0  6  0  0  0  0  0  0
  -14.9970   34.2188   40.4234 N   0  0  0  0  0  0  0  0  0  0  0  0
  -15.5907   36.3721   39.3267 O   0  0  0  0  0  0  0  0  0  0  0  0
  -18.1224   37.4121   45.2190 N   0  0  0  0  0  0  0  0  0  0  0  0
  -21.7613   37.2011   45.8881 S   0  0  0  0  0  0  0  0  0  0  0  0
  -17.5578   35.1084   46.5023 H   0  0  0  0  0  0  0  0  0  0  0  0
  -19.0060   38.0217   42.8282 H   0  0  0  0  0  0  0  0  0  0  0  0
  -15.5356   34.6814   42.6811 H   0  0  0  0  0  0  0  0  0  0  0  0
  -19.3027   38.5989   46.4196 H   0  0  0  0  0  0  0  0  0  0  0  0
  -18.9450   39.2428   44.8118 H   0  0  0  0  0  0  0  0  0  0  0  0
  -23.7857   36.6675   44.6868 H   0  0  0  0  0  0  0  0  0  0  0  0
  -22.7301   37.4281   42.5501 H   0  0  0  0  0  0  0  0  0  0  0  0
  -20.3371   38.2313   42.8320 H   0  0  0  0  0  0  0  0  0  0  0  0
  -15.4138   33.4213   40.9035 H   0  0  0  0  0  0  0  0  0  0  0  0
  -14.3374   34.6842   41.0468 H   0  0  0  0  0  0  0  0  0  0  0  0
  -17.6466   37.1246   46.0314 H   0  0  0  0  0  0  0  0  0  0  0  0
  2  3  4  0
  3  4  4  0
  4  5  4  0
  5  6  1  0
  1  6  4  0
  5  7  4  0
  8 10  1  0
 11 12  4  0
 12 14  4  0
 10 14  4  0
  1 15  4  0
 13 15  4  0
  2 16  1  0
  6 17  4  0
 13 17  4  0
  2 18  4  0
  7 18  4  0
  9 19  2  0
 18 19  1  0
 19 20  1  1
 19 21  2  0
  4 22  1  0
  8 22  1  0
 10 23  4  0
 11 23  4  0
  1 24  1  0
  3 25  1  0
  7 26  1  0
  8 27  1  0
  8 28  1  0
 11 29  1  0
 12 30  1  0
 14 31  1  0
 20 32  1  0
 20 33  1  0
 22 34  1  0
M  CHG  1   1   1
M  END
