7ZXZ_K9R_B_201
     RDKit          3D

 33 36  0  0  0  0  0  0  0  0999 V2000
   28.7304  -12.1009    6.0785 N   0  0  0  0  0  0  0  0  0  0  0  0
   26.3814  -16.7654    8.3502 C   0  0  0  0  0  0  0  0  0  0  0  0
   27.0757  -17.5761    7.2545 C   0  0  0  0  0  0  0  0  0  0  0  0
   28.7658  -19.4489    7.2368 N   0  0  0  0  0  0  0  0  0  0  0  0
   27.9351  -18.5593    7.9713 C   0  0  0  0  0  0  0  0  0  0  0  0
   30.1519  -21.5576    5.8522 O   0  0  0  0  0  0  0  0  0  0  0  0
   27.8330  -13.9152    4.9757 C   0  0  2  0  0  0  0  0  0  0  0  0
   26.6139  -14.5973    7.1203 C   0  0  0  0  0  0  0  0  0  0  0  0
   25.6622  -15.6259    7.6585 C   0  0  0  0  0  0  0  0  0  0  0  0
   27.3134  -14.9372    5.8752 C   0  0  2  0  0  0  0  0  0  0  0  0
   29.9325  -14.2650    6.2222 C   0  0  0  0  0  0  0  0  0  0  0  0
   27.9288  -18.6053    9.2255 O   0  0  0  0  0  0  0  0  0  0  0  0
   29.1140  -13.3244    5.4548 C   0  0  2  0  0  0  0  0  0  0  0  0
   26.9597  -12.7800    4.8483 N   0  0  0  0  0  0  0  0  0  0  0  0
   28.8906  -15.7670    6.3810 S   0  0  0  0  0  0  0  0  0  0  0  0
   27.6368  -11.5900    5.3189 C   0  0  0  0  0  0  0  0  0  0  0  0
   27.3137  -10.3894    5.0949 O   0  0  0  0  0  0  0  0  0  0  0  0
   29.4389  -20.4901    7.9467 C   0  0  2  0  0  0  0  0  0  0  0  0
   30.5046  -19.9556    8.9129 C   0  0  0  0  0  0  0  0  0  0  0  0
   31.6105  -20.9806    8.8357 C   0  0  0  0  0  0  0  0  0  0  0  0
   32.6817  -20.8010    9.3852 O   0  0  0  0  0  0  0  0  0  0  0  0
   31.1384  -22.1378    8.0193 C   0  0  1  0  0  0  0  0  0  0  0  0
   30.2231  -21.4132    7.0609 C   0  0  0  0  0  0  0  0  0  0  0  0
   32.2133  -22.8629    7.3340 C   0  0  0  0  0  0  0  0  0  0  0  0
   32.6666  -22.3245    6.1241 C   0  0  0  0  0  0  0  0  0  0  0  0
   33.6604  -22.9453    5.4345 C   0  0  0  0  0  0  0  0  0  0  0  0
   34.1403  -22.3646    4.1417 C   0  0  0  0  0  0  0  0  0  0  0  0
   35.4295  -21.1333    4.3840 S   0  0  0  0  0  0  0  0  0  0  0  0
   34.2048  -24.1011    5.9456 C   0  0  0  0  0  0  0  0  0  0  0  0
   33.7536  -24.6325    7.1450 C   0  0  0  0  0  0  0  0  0  0  0  0
   32.7355  -24.0117    7.8681 C   0  0  0  0  0  0  0  0  0  0  0  0
   34.3876  -25.8859    7.6380 C   0  0  0  0  0  0  0  0  0  0  0  0
   34.9902  -25.5619    9.3362 S   0  0  0  0  0  0  0  0  0  0  0  0
  2  3  1  0
  3  5  1  0
  4  5  1  0
  8  9  1  0
  2  9  1  0
  7 10  1  0
 10  8  1  1
  5 12  2  0
  1 13  1  0
 13 11  1  1
  7 13  1  0
  7 14  1  1
 11 15  1  0
 10 15  1  0
  1 16  1  0
 14 16  1  0
 16 17  2  0
 18  4  1  6
 18 19  1  0
 19 20  1  0
 20 21  2  0
 20 22  1  0
 18 23  1  0
 22 23  1  0
  6 23  2  0
 22 24  1  6
 24 25  2  0
 25 26  1  0
 26 27  1  0
 27 28  1  0
 26 29  2  0
 29 30  1  0
 24 31  1  0
 30 31  2  0
 30 32  1  0
 32 33  1  0
M  END
$$$$
