7FT9_4MB_C_301
     RDKit          3D

 23 23  0  0  0  0  0  0  0  0999 V2000
    1.8176    6.7187  -32.1010 C   0  0  0  0  0  0  0  0  0  0  0  0
    0.8915    8.9595  -32.1232 C   0  0  0  0  0  0  0  0  0  0  0  0
    0.2405    4.7938  -31.7386 N   0  0  0  0  0  0  0  0  0  0  0  0
    0.5348    6.1927  -31.8942 C   0  0  0  0  0  0  0  0  0  0  0  0
    1.9946    8.0893  -32.2162 C   0  0  0  0  0  0  0  0  0  0  0  0
    1.0013   10.4299  -32.2902 C   0  0  0  0  0  0  0  0  0  0  0  0
   -0.3614    8.4206  -31.9011 C   0  0  0  0  0  0  0  0  0  0  0  0
    0.4780    2.3254  -30.6430 C   0  0  0  0  0  0  0  0  0  0  0  0
   -0.5423    7.0559  -31.7939 C   0  0  0  0  0  0  0  0  0  0  0  0
    2.1015   10.9603  -32.4998 O   0  0  0  0  0  0  0  0  0  0  0  0
   -0.1149   11.1008  -32.1915 O   0  0  0  0  0  0  0  0  0  0  0  0
    1.3275    3.6174  -31.4684 S   0  0  2  0  0  6  0  0  0  0  0  0
    2.2756    4.1914  -30.5639 O   0  0  0  0  0  0  0  0  0  0  0  0
    1.7847    3.1210  -32.7275 O   0  0  0  0  0  0  0  0  0  0  0  0
    2.6303    6.0861  -32.1675 H   0  0  0  0  0  0  0  0  0  0  0  0
   -0.7045    4.5249  -31.8015 H   0  0  0  0  0  0  0  0  0  0  0  0
    2.9398    8.4735  -32.3711 H   0  0  0  0  0  0  0  0  0  0  0  0
   -1.1756    9.0486  -31.8139 H   0  0  0  0  0  0  0  0  0  0  0  0
    0.1269    2.6777  -29.6956 H   0  0  0  0  0  0  0  0  0  0  0  0
   -0.3541    2.0093  -31.2369 H   0  0  0  0  0  0  0  0  0  0  0  0
    1.1428    1.5005  -30.4926 H   0  0  0  0  0  0  0  0  0  0  0  0
   -1.4892    6.6762  -31.6375 H   0  0  0  0  0  0  0  0  0  0  0  0
   -0.9204   10.6493  -32.0321 H   0  0  0  0  0  0  0  0  0  0  0  0
  1  4  4  0
  3  4  1  0
  1  5  4  0
  2  5  4  0
  2  6  1  0
  2  7  4  0
  4  9  4  0
  7  9  4  0
  6 10  2  0
  6 11  1  0
 12  3  1  1
  8 12  1  0
 12 13  2  0
 12 14  2  0
  1 15  1  0
  3 16  1  0
  5 17  1  0
  7 18  1  0
  8 19  1  0
  8 20  1  0
  8 21  1  0
  9 22  1  0
 11 23  1  0
M  END
