8EAD_UY0_A_202
     RDKit          3D

 38 41  0  0  0  0  0  0  0  0999 V2000
    4.5633  -11.7490    4.4768 C   0  0  0  0  0  0  0  0  0  0  0  0
    5.5629  -10.8382    7.9901 C   0  0  0  0  0  0  0  0  0  0  0  0
    4.5399   -8.8333    7.4216 C   0  0  0  0  0  0  0  0  0  0  0  0
    5.3867   -8.3858    9.6079 C   0  0  0  0  0  0  0  0  0  0  0  0
    4.1406  -11.0814    2.1804 C   0  0  0  0  0  0  0  0  0  0  0  0
    3.5403   -9.5033   -1.3050 C   0  0  0  0  0  0  0  0  0  0  0  0
    3.6365   -7.5746    0.1915 C   0  0  0  0  0  0  0  0  0  0  0  0
    2.8023   -6.5422    2.1659 C   0  0  0  0  0  0  0  0  0  0  0  0
    3.1153   -9.0712   -3.7482 C   0  0  0  0  0  0  0  0  0  0  0  0
    3.3970   -9.9789   -2.5979 C   0  0  0  0  0  0  0  0  0  0  0  0
    3.5066  -11.3285   -2.9090 C   0  0  0  0  0  0  0  0  0  0  0  0
    3.9048  -11.7167   -0.6167 C   0  0  0  0  0  0  0  0  0  0  0  0
    4.3107  -12.3866    1.7484 C   0  0  0  0  0  0  0  0  0  0  0  0
    4.6059  -13.3717    2.6687 C   0  0  0  0  0  0  0  0  0  0  0  0
    4.7240  -13.0299    4.0010 C   0  0  0  0  0  0  0  0  0  0  0  0
    5.3328  -11.7785    6.8636 C   0  0  0  0  0  0  0  0  0  0  0  0
    4.1390   -8.3293    8.7821 C   0  0  0  0  0  0  0  0  0  0  0  0
    6.4545   -8.6701    8.6024 C   0  0  0  0  0  0  0  0  0  0  0  0
    4.2641  -10.7666    3.5185 C   0  0  0  0  0  0  0  0  0  0  0  0
    2.5740   -7.0789    0.9079 C   0  0  0  0  0  0  0  0  0  0  0  0
    4.0718   -6.5057    2.6900 C   0  0  0  0  0  0  0  0  0  0  0  0
    5.1697   -7.0008    1.9886 C   0  0  0  0  0  0  0  0  0  0  0  0
    8.0700   -9.2497    2.6971 C   0  0  1  0  0  0  0  0  0  0  0  0
    9.3469   -9.8508    2.2007 C   0  0  0  0  0  0  0  0  0  0  0  0
    6.8473  -10.0609    2.4006 C   0  0  0  0  0  0  0  0  0  0  0  0
    8.1698   -8.9383    4.1861 C   0  0  0  0  0  0  0  0  0  0  0  0
    4.9015   -7.5256    0.7433 C   0  0  0  0  0  0  0  0  0  0  0  0
    3.7597  -12.1674   -1.8997 N   0  0  0  0  0  0  0  0  0  0  0  0
    4.1652  -12.7126    0.3556 N   0  0  0  0  0  0  0  0  0  0  0  0
    5.8443   -9.4770    7.5933 N   0  0  0  0  0  0  0  0  0  0  0  0
    3.7944  -10.3963   -0.3324 N   0  0  0  0  0  0  0  0  0  0  0  0
    3.4075   -8.1122   -1.1119 N   0  0  0  0  0  0  0  0  0  0  0  0
    6.4653   -6.9242    2.5554 N   0  0  0  0  0  0  0  0  0  0  0  0
    4.6614  -11.3447    5.7632 O   0  0  0  0  0  0  0  0  0  0  0  0
    7.7275   -7.9398    0.4216 O   0  0  0  0  0  0  0  0  0  0  0  0
    9.1110   -6.8286    2.0844 O   0  0  0  0  0  0  0  0  0  0  0  0
    7.8694   -7.6546    1.8878 S   0  0  2  0  0  0  0  0  0  0  0  0
    4.3956   -5.8278    4.2915 Cl  0  0  0  0  0  0  0  0  0  0  0  0
  6 10  2  0
  9 10  1  0
 10 11  1  0
  5 13  2  0
 13 14  1  0
  1 15  1  0
 14 15  2  0
  2 16  1  0
  4 17  1  0
  3 17  1  0
  4 18  1  0
  1 19  2  0
  5 19  1  0
  7 20  1  0
  8 20  2  0
  8 21  1  0
 21 22  2  0
 23 24  1  6
 23 25  1  0
 23 26  1  0
 22 27  1  0
  7 27  2  0
 12 28  1  0
 11 28  2  0
 13 29  1  0
 12 29  1  0
  2 30  1  0
 18 30  1  0
  3 30  1  0
 12 31  2  0
  6 31  1  0
  7 32  1  0
  6 32  1  0
 22 33  1  0
 16 34  1  0
  1 34  1  0
 36 37  2  0
 23 37  1  0
 35 37  2  0
 37 33  1  1
 21 38  1  0
M  END
$$$$
