
     RDKit          3D

 20 19  0  0  0  0  0  0  0  0999 V2000
   28.5986   28.3533   30.1865 N   0  0  0  0  0  0  0  0  0  0  0  0
   27.8758   28.9543   31.3270 C   0  0  1  0  0  0  0  0  0  0  0  0
   27.1424   30.2372   30.9018 C   0  0  0  0  0  0  0  0  0  0  0  0
   26.3610   30.8917   31.5724 O   0  0  0  0  0  0  0  0  0  0  0  0
   27.4622   30.6407   29.6505 O   0  0  0  0  0  0  0  0  0  0  0  0
   26.9324   27.9557   32.0188 C   0  0  0  0  0  0  0  0  0  0  0  0
   25.5751   27.7630   31.3382 C   0  0  0  0  0  0  0  0  0  0  0  0
   24.4270   28.3088   32.1633 C   0  0  0  0  0  0  0  0  0  0  0  0
   24.4116   28.3028   33.3900 O   0  0  0  0  0  0  0  0  0  0  0  0
   23.4155   28.8650   31.4066 N   0  0  0  0  0  0  0  0  0  0  0  0
   22.2048   29.3733   32.0709 C   0  0  1  0  0  0  0  0  0  0  0  0
   22.0352   30.8214   31.5767 C   0  0  0  0  0  0  0  0  0  0  0  0
   21.2458   31.1360   30.6884 O   0  0  0  0  0  0  0  0  0  0  0  0
   20.9922   28.5134   31.7027 C   0  0  0  0  0  0  0  0  0  0  0  0
   21.3529   26.7295   31.7941 S   0  0  0  0  0  0  0  0  0  0  0  0
   22.9478   31.7034   32.1081 N   0  0  0  0  0  0  0  0  0  0  0  0
   22.6027   32.5711   33.2195 C   0  0  0  0  0  0  0  0  0  0  0  0
   22.8786   34.0375   32.9290 C   0  0  0  0  0  0  0  0  0  0  0  0
   22.0772   34.8401   32.4760 O   0  0  0  0  0  0  0  0  0  0  0  0
   24.1459   34.4198   33.1969 O   0  0  0  0  0  0  0  0  0  0  0  0
  2  1  1  6
  2  3  1  0
  3  4  2  0
  3  5  1  0
  2  6  1  0
  6  7  1  0
  7  8  1  0
  8  9  2  0
  8 10  1  0
 10 11  1  0
 11 12  1  0
 12 13  2  0
 11 14  1  6
 14 15  1  0
 12 16  1  0
 16 17  1  0
 17 18  1  0
 18 19  2  0
 18 20  1  0
M  END
