7QFM_AY3_A_402
     RDKit          3D

 20 22  0  0  0  0  0  0  0  0999 V2000
 -121.6593  194.1450   -0.2820 C   0  0  0  0  0  0  0  0  0  0  0  0
 -122.1619  192.9740    0.2486 C   0  0  0  0  0  0  0  0  0  0  0  0
 -121.8797  190.6772    1.1571 C   0  0  0  0  0  0  0  0  0  0  0  0
 -121.3212  191.9121    0.5481 C   0  0  0  0  0  0  0  0  0  0  0  0
 -119.9632  192.0446    0.2866 C   0  0  0  0  0  0  0  0  0  0  0  0
 -119.4638  193.2142   -0.2563 C   0  0  0  0  0  0  0  0  0  0  0  0
 -121.1463  189.7242    1.4264 O   0  0  0  0  0  0  0  0  0  0  0  0
 -120.3012  194.2921   -0.5421 C   0  0  0  0  0  0  0  0  0  0  0  0
 -123.1711  190.6904    1.3691 O   0  0  0  0  0  0  0  0  0  0  0  0
 -119.8250  195.5724   -1.0691 C   0  0  0  0  0  0  0  0  0  0  0  0
 -118.9928  196.4565   -0.4990 C   0  0  0  0  0  0  0  0  0  0  0  0
 -118.9753  198.0994   -2.3125 O   0  0  0  0  0  0  0  0  0  0  0  0
 -118.5938  197.7205   -1.2084 C   0  0  0  0  0  0  0  0  0  0  0  0
 -118.2411  195.6424    1.8770 C   0  0  0  0  0  0  0  0  0  0  0  0
 -118.2919  196.4884    0.7695 C   0  0  0  0  0  0  0  0  0  0  0  0
 -117.7413  198.3747   -0.3890 N   0  0  0  0  0  0  0  0  0  0  0  0
 -117.4545  195.9840    2.9672 C   0  0  0  0  0  0  0  0  0  0  0  0
 -116.7130  197.1580    2.9696 C   0  0  0  0  0  0  0  0  0  0  0  0
 -116.7451  198.0192    1.8827 C   0  0  0  0  0  0  0  0  0  0  0  0
 -117.5339  197.6778    0.7939 C   0  0  0  0  0  0  0  0  0  0  0  0
  1  2  2  0
  3  4  1  0
  2  4  1  0
  4  5  2  0
  5  6  1  0
  3  7  2  0
  1  8  1  0
  6  8  2  0
  3  9  1  0
  8 10  1  0
 10 11  2  0
 12 13  2  0
 11 13  1  0
 11 15  1  0
 14 15  2  0
 13 16  1  0
 14 17  1  0
 17 18  2  0
 18 19  1  0
 15 20  1  0
 16 20  1  0
 19 20  2  0
M  END
