8BRO_R7E_A_201
     RDKit          3D

 26 28  0  0  0  0  0  0  0  0999 V2000
   15.1439   -3.1730   29.2065 N   0  0  0  0  0  0  0  0  0  0  0  0
   13.5476   -4.4063   32.8452 C   0  0  2  0  0  0  0  0  0  0  0  0
   15.0297   -4.1092   32.6882 C   0  0  2  0  0  0  0  0  0  0  0  0
   15.5491   -3.3233   33.8691 C   0  0  0  0  0  0  0  0  0  0  0  0
   16.3862   -3.1280   28.7240 C   0  0  0  0  0  0  0  0  0  0  0  0
   16.6831   -2.1391   27.7130 C   0  0  0  0  0  0  0  0  0  0  0  0
   17.5366   -0.7615   26.2262 C   0  0  0  0  0  0  0  0  0  0  0  0
   15.6632    0.7763   24.3045 C   0  0  0  0  0  0  0  0  0  0  0  0
   13.6372    2.0029   24.0370 C   0  0  0  0  0  0  0  0  0  0  0  0
   14.0858    0.6723   26.0308 C   0  0  0  0  0  0  0  0  0  0  0  0
   14.8477   -3.9792   30.3191 C   0  0  1  0  0  0  0  0  0  0  0  0
   15.1875   -3.3240   31.4861 O   0  0  0  0  0  0  0  0  0  0  0  0
   13.0082   -5.0986   31.6191 C   0  0  1  0  0  0  0  0  0  0  0  0
   11.6068   -5.3443   31.7173 O   0  0  0  0  0  0  0  0  0  0  0  0
   13.3524   -4.3488   30.3395 C   0  0  2  0  0  0  0  0  0  0  0  0
   12.9562   -5.0934   29.1767 O   0  0  0  0  0  0  0  0  0  0  0  0
   12.7929   -3.1985   32.9866 O   0  0  0  0  0  0  0  0  0  0  0  0
   17.2839   -3.9084   29.1240 O   0  0  0  0  0  0  0  0  0  0  0  0
   15.6544   -1.4742   27.1223 O   0  0  0  0  0  0  0  0  0  0  0  0
   16.2141   -0.5947   26.2482 C   0  0  0  0  0  0  0  0  0  0  0  0
   17.8419   -1.7370   27.1884 C   0  0  0  0  0  0  0  0  0  0  0  0
   15.3124    0.3171   25.5469 C   0  0  0  0  0  0  0  0  0  0  0  0
   13.2399    1.4968   25.2855 C   0  0  0  0  0  0  0  0  0  0  0  0
   14.8590    1.6176   23.5408 C   0  0  0  0  0  0  0  0  0  0  0  0
   15.4463    2.1176   22.2496 C   0  0  0  0  0  0  0  0  0  0  0  0
   14.8113    3.4268   21.6769 N   0  0  0  0  0  0  0  0  0  0  0  0
  2  3  1  0
  3  4  1  1
  1  5  1  0
  5  6  1  0
 11  1  1  6
  3 12  1  0
 11 12  1  0
  2 13  1  0
 13 14  1  1
 13 15  1  0
 11 15  1  0
 15 16  1  6
  2 17  1  6
  5 18  2  0
  6 19  1  0
 19 20  1  0
  7 20  2  0
  6 21  2  0
  7 21  1  0
 20 22  1  0
 10 22  1  0
  8 22  2  0
 10 23  2  0
  9 23  1  0
  8 24  1  0
  9 24  2  0
 24 25  1  0
 25 26  1  0
M  END
