1LPZ_CMB_B_301
     RDKit          3D

 54 57  0  0  0  0  0  0  0  0999 V2000
    6.7282    4.7462    2.9548 C   0  0  0  0  0  0  0  0  0  0  0  0
    7.1409    4.5294    4.2799 C   0  0  0  0  0  0  0  0  0  0  0  0
    6.1869    4.0917    5.2068 C   0  0  0  0  0  0  0  0  0  0  0  0
    4.8832    3.8728    4.8309 C   0  0  0  0  0  0  0  0  0  0  0  0
    4.4399    4.0808    3.5189 C   0  0  0  0  0  0  0  0  0  0  0  0
    5.3891    4.5243    2.5746 C   0  0  0  0  0  0  0  0  0  0  0  0
    6.3607    3.8104    6.5195 N   0  0  0  0  0  4  0  0  0  0  0  0
    5.1416    3.3954    6.9673 C   0  0  0  0  0  0  0  0  0  0  0  0
    4.2025    3.4241    5.9419 C   0  0  0  0  0  0  0  0  0  0  0  0
    3.0135    3.8256    3.1279 C   0  0  0  0  0  0  0  0  0  0  0  0
    4.8351    2.9595    8.3438 C   0  0  0  0  0  0  0  0  0  0  0  0
    5.8834    2.4812    9.1992 N   0  0  0  0  0  0  0  0  0  0  0  0
    6.8191    1.4397    8.7819 C   0  0  0  0  0  0  0  0  0  0  0  0
    8.0644    1.4923    9.6242 C   0  0  0  0  0  0  0  0  0  0  0  0
    7.6381    3.7555    7.2447 C   0  0  0  0  0  0  0  0  0  0  0  0
    7.9135    2.3471    7.7036 C   0  0  0  0  0  0  0  0  0  0  0  0
    7.2679    1.2670    7.0847 C   0  0  0  0  0  0  0  0  0  0  0  0
    7.4765   -0.0343    7.5440 C   0  0  0  0  0  0  0  0  0  0  0  0
    8.3255   -0.2709    8.6277 C   0  0  0  0  0  0  0  0  0  0  0  0
    8.9853    0.7967    9.2624 C   0  0  0  0  0  0  0  0  0  0  0  0
    8.7687    2.1057    8.7918 C   0  0  0  0  0  0  0  0  0  0  0  0
    8.6442    0.3023   10.0929 C   0  0  0  0  0  0  0  0  0  0  0  0
    9.7864    0.3445   10.9000 C   0  0  0  0  0  0  0  0  0  0  0  0
   10.3536    1.5756   11.2455 C   0  0  0  0  0  0  0  0  0  0  0  0
    9.7792    2.7653   10.7859 C   0  0  0  0  0  0  0  0  0  0  0  0
    8.6370    2.7251    9.9786 C   0  0  0  0  0  0  0  0  0  0  0  0
    9.8728    0.5593   10.4288 C   0  0  0  0  0  0  0  0  0  0  0  0
    9.3521    0.3650   11.6002 N   0  0  0  0  0  0  0  0  0  0  0  0
   10.5035   -1.1463   11.4831 Cl  0  0  0  0  0  0  0  0  0  0  0  0
   10.4880    4.3083   11.2260 Cl  0  0  0  0  0  0  0  0  0  0  0  0
    3.6463    2.9847    8.7601 O   0  0  0  0  0  0  0  0  0  0  0  0
   11.2983    0.5527   10.2804 N   0  0  0  0  0  0  0  0  0  0  0  0
    7.4455    5.0856    2.2188 H   0  0  0  0  0  0  0  0  0  0  0  0
    8.1708    4.7047    4.5554 H   0  0  0  0  0  0  0  0  0  0  0  0
    5.0983    4.6966    1.5459 H   0  0  0  0  0  0  0  0  0  0  0  0
    3.1561    3.1538    6.0025 H   0  0  0  0  0  0  0  0  0  0  0  0
    2.7741    2.7514    3.2736 H   0  0  0  0  0  0  0  0  0  0  0  0
    2.3368    4.4387    3.7596 H   0  0  0  0  0  0  0  0  0  0  0  0
    2.8324    4.0873    2.0638 H   0  0  0  0  0  0  0  0  0  0  0  0
    5.9607    2.8531   10.1725 H   0  0  0  0  0  0  0  0  0  0  0  0
    6.3416    0.4436    8.9076 H   0  0  0  0  0  0  0  0  0  0  0  0
    7.0515    1.5558    7.7006 H   0  0  0  0  0  0  0  0  0  0  0  0
    7.6242    4.4570    8.1033 H   0  0  0  0  0  0  0  0  0  0  0  0
    8.4710    4.1079    6.6027 H   0  0  0  0  0  0  0  0  0  0  0  0
    6.5978    1.4314    6.2511 H   0  0  0  0  0  0  0  0  0  0  0  0
    6.9685   -0.8619    7.0660 H   0  0  0  0  0  0  0  0  0  0  0  0
    8.4396   -1.2870    8.9811 H   0  0  0  0  0  0  0  0  0  0  0  0
    9.2733    2.9369    9.2670 H   0  0  0  0  0  0  0  0  0  0  0  0
    8.2054   -0.6540    9.8344 H   0  0  0  0  0  0  0  0  0  0  0  0
   11.2366    1.6076   11.8714 H   0  0  0  0  0  0  0  0  0  0  0  0
    8.1955    3.6519    9.6329 H   0  0  0  0  0  0  0  0  0  0  0  0
    9.9424    0.1988   12.4459 H   0  0  0  0  0  0  0  0  0  0  0  0
   11.7549    0.8530    9.3916 H   0  0  0  0  0  0  0  0  0  0  0  0
   11.9152    0.3189   11.0902 H   0  0  0  0  0  0  0  0  0  0  0  0
  1  2  4  0
  2  3  4  0
  3  4  4  0
  4  5  4  0
  1  6  4  0
  5  6  4  0
  3  7  4  0
  7  8  4  0
  4  9  4  0
  8  9  4  0
  5 10  1  0
  8 11  1  0
 11 12  1  0
 12 13  1  0
 13 14  1  0
  7 15  1  0
 15 16  1  0
 16 17  4  0
 17 18  4  0
 18 19  4  0
 19 20  4  0
 16 21  4  0
 20 21  4  0
 14 22  4  0
 22 23  4  0
 23 24  4  0
 24 25  4  0
 14 26  4  0
 25 26  4  0
 20 27  1  0
 27 28  2  3
 23 29  1  0
 25 30  1  0
 11 31  2  0
 27 32  1  0
  1 33  1  0
  2 34  1  0
  6 35  1  0
  9 36  1  0
 10 37  1  0
 10 38  1  0
 10 39  1  0
 12 40  1  0
 13 41  1  0
 13 42  1  0
 15 43  1  0
 15 44  1  0
 17 45  1  0
 18 46  1  0
 19 47  1  0
 21 48  1  0
 22 49  1  0
 24 50  1  0
 26 51  1  0
 28 52  1  0
 32 53  1  0
 32 54  1  0
M  CHG  1   7   1
M  END
