7Q25_8J9_A_701
     RDKit          3D

 65 66  0  0  0  0  0  0  0  0999 V2000
  -48.7338   76.5298   -0.5641 C   0  0  0  0  0  0  0  0  0  0  0  0
  -49.5911   77.5568   -2.7127 C   0  0  2  0  0  0  0  0  0  0  0  0
  -48.5062   76.8836   -1.9059 C   0  0  0  0  0  0  0  0  0  0  0  0
  -47.7446   75.8649    0.1692 C   0  0  0  0  0  0  0  0  0  0  0  0
  -46.5161   75.5531   -0.4294 C   0  0  0  0  0  0  0  0  0  0  0  0
  -46.2829   75.9118   -1.7626 C   0  0  0  0  0  0  0  0  0  0  0  0
  -47.2757   76.5620   -2.5027 C   0  0  0  0  0  0  0  0  0  0  0  0
  -53.8686   73.4066   -1.2501 C   0  0  2  0  0  0  0  0  0  0  0  0
  -54.8555   72.3348   -1.6549 C   0  0  0  0  0  0  0  0  0  0  0  0
  -52.8032   72.7925   -0.3182 C   0  0  1  0  0  0  0  0  0  0  0  0
  -52.6437   75.7708    4.2308 C   0  0  2  0  0  0  0  0  0  0  0  0
  -53.6592   75.9443    3.1044 C   0  0  2  0  0  0  0  0  0  0  0  0
  -53.0308   75.6214    1.7413 C   0  0  1  0  0  0  0  0  0  0  0  0
  -53.5603   76.5159    0.6006 C   0  0  1  0  0  0  0  0  0  0  0  0
  -53.8236   75.8115   -0.7542 C   0  0  1  0  0  0  0  0  0  0  0  0
  -52.5363   75.5970   -1.5089 C   0  0  0  0  0  0  0  0  0  0  0  0
  -50.7425   76.5843   -3.0222 C   0  0  1  0  0  0  0  0  0  0  0  0
  -50.2448   75.1661   -3.0353 C   0  0  0  0  0  0  0  0  0  0  0  0
  -53.3300   72.4464    1.0903 C   0  0  1  0  0  0  0  0  0  0  0  0
  -54.4623   73.3354    1.5528 C   0  0  0  0  0  0  0  0  0  0  0  0
  -54.3829   74.7297    1.3876 C   0  0  0  0  0  0  0  0  0  0  0  0
  -55.3949   75.5603    1.8788 C   0  0  0  0  0  0  0  0  0  0  0  0
  -56.4869   75.0107    2.5552 C   0  0  0  0  0  0  0  0  0  0  0  0
  -56.5628   73.6300    2.7510 C   0  0  0  0  0  0  0  0  0  0  0  0
  -55.5524   72.7963    2.2633 C   0  0  0  0  0  0  0  0  0  0  0  0
  -51.8080   76.7223   -2.0243 N   0  0  0  0  0  0  0  0  0  0  0  0
  -54.5550   74.5349   -0.5860 N   0  0  0  0  0  0  0  0  0  0  0  0
  -49.0478   74.9154   -2.7264 O   0  0  0  0  0  0  0  0  0  0  0  0
  -51.1062   74.1227   -3.3727 O   0  0  0  0  0  0  0  0  0  0  0  0
  -45.5243   74.8860    0.2887 O   0  0  0  0  0  0  0  0  0  0  0  0
  -52.0841   74.4270   -1.6557 O   0  0  0  0  0  0  0  0  0  0  0  0
  -54.6855   71.1391   -1.2885 O   0  0  0  0  0  0  0  0  0  0  0  0
  -55.9567   72.6674   -2.4383 O   0  0  0  0  0  0  0  0  0  0  0  0
  -49.6800   76.7616   -0.0899 H   0  0  0  0  0  0  0  0  0  0  0  0
  -49.1706   77.9609   -3.6629 H   0  0  0  0  0  0  0  0  0  0  0  0
  -49.9862   78.4204   -2.1336 H   0  0  0  0  0  0  0  0  0  0  0  0
  -47.9348   75.5917    1.2002 H   0  0  0  0  0  0  0  0  0  0  0  0
  -45.3332   75.6795   -2.2280 H   0  0  0  0  0  0  0  0  0  0  0  0
  -47.0862   76.8127   -3.5411 H   0  0  0  0  0  0  0  0  0  0  0  0
  -53.3467   73.7640   -2.1676 H   0  0  0  0  0  0  0  0  0  0  0  0
  -52.3407   71.9064   -0.8044 H   0  0  0  0  0  0  0  0  0  0  0  0
  -51.9908   73.5435   -0.1860 H   0  0  0  0  0  0  0  0  0  0  0  0
  -52.5010   74.6901    4.4373 H   0  0  0  0  0  0  0  0  0  0  0  0
  -53.0066   76.2640    5.1577 H   0  0  0  0  0  0  0  0  0  0  0  0
  -51.6655   76.2073    3.9406 H   0  0  0  0  0  0  0  0  0  0  0  0
  -54.0318   76.9925    3.1140 H   0  0  0  0  0  0  0  0  0  0  0  0
  -54.5121   75.2631    3.3007 H   0  0  0  0  0  0  0  0  0  0  0  0
  -51.9323   75.7935    1.8090 H   0  0  0  0  0  0  0  0  0  0  0  0
  -53.1752   74.5453    1.5016 H   0  0  0  0  0  0  0  0  0  0  0  0
  -54.4823   77.0404    0.9341 H   0  0  0  0  0  0  0  0  0  0  0  0
  -52.8042   77.3128    0.4252 H   0  0  0  0  0  0  0  0  0  0  0  0
  -54.4438   76.5233   -1.3469 H   0  0  0  0  0  0  0  0  0  0  0  0
  -51.1268   76.8213   -4.0398 H   0  0  0  0  0  0  0  0  0  0  0  0
  -53.7135   71.4027    1.0771 H   0  0  0  0  0  0  0  0  0  0  0  0
  -52.4874   72.4591    1.8165 H   0  0  0  0  0  0  0  0  0  0  0  0
  -53.5276   75.1790    0.9006 H   0  0  0  0  0  0  0  0  0  0  0  0
  -55.3305   76.6313    1.7400 H   0  0  0  0  0  0  0  0  0  0  0  0
  -57.2675   75.6561    2.9373 H   0  0  0  0  0  0  0  0  0  0  0  0
  -57.3987   73.2045    3.2928 H   0  0  0  0  0  0  0  0  0  0  0  0
  -55.6115   71.7339    2.4600 H   0  0  0  0  0  0  0  0  0  0  0  0
  -52.1026   77.6845   -1.7382 H   0  0  0  0  0  0  0  0  0  0  0  0
  -55.5203   74.6209   -0.9841 H   0  0  0  0  0  0  0  0  0  0  0  0
  -50.7676   73.3120   -3.8824 H   0  0  0  0  0  0  0  0  0  0  0  0
  -45.5062   73.8750    0.3530 H   0  0  0  0  0  0  0  0  0  0  0  0
  -56.8892   72.3709   -2.1767 H   0  0  0  0  0  0  0  0  0  0  0  0
  1  3  2  0
  2  3  1  0
  1  4  1  0
  4  5  2  0
  5  6  1  0
  6  7  2  0
  3  7  1  0
  8  9  1  0
  8 10  1  0
 11 12  1  0
 12 13  1  0
 13 14  1  0
 15 14  1  0
 15 16  1  0
 17  2  1  0
 17 18  1  0
 10 19  1  0
 19 20  1  0
 20 21  2  0
 21 22  1  0
 22 23  2  0
 23 24  1  0
 24 25  2  0
 20 25  1  0
 16 26  1  0
 17 26  1  0
 15 27  1  0
  8 27  1  0
 18 28  2  0
 18 29  1  0
  5 30  1  0
 16 31  2  0
  9 32  2  0
  9 33  1  0
  1 34  1  0
  2 35  1  6
  2 36  1  0
  4 37  1  0
  6 38  1  0
  7 39  1  0
  8 40  1  6
 10 41  1  6
 10 42  1  0
 11 43  1  1
 11 44  1  0
 11 45  1  0
 12 46  1  6
 12 47  1  0
 13 48  1  1
 13 49  1  0
 14 50  1  1
 14 51  1  0
 15 52  1  6
 17 53  1  6
 19 54  1  6
 19 55  1  0
 21 56  1  0
 22 57  1  0
 23 58  1  0
 24 59  1  0
 25 60  1  0
 26 61  1  0
 27 62  1  0
 29 63  1  0
 30 64  1  0
 33 65  1  0
M  END
