7MS7_ZQ1_A_302
     RDKit          3D

 29 31  0  0  0  0  0  0  0  0999 V2000
    1.3404   49.3943  -20.4035 C   0  0  0  0  0  0  0  0  0  0  0  0
    2.3805   49.3524  -21.5110 C   0  0  0  0  0  0  0  0  0  0  0  0
    3.0280   47.9784  -21.5789 C   0  0  2  0  0  0  0  0  0  0  0  0
    4.0915   47.9283  -22.6657 C   0  0  0  0  0  0  0  0  0  0  0  0
    4.5694   46.7221  -23.1501 C   0  0  0  0  0  0  0  0  0  0  0  0
    4.5977   49.0956  -23.2001 C   0  0  0  0  0  0  0  0  0  0  0  0
   -0.4145   48.6951  -17.8720 C   0  0  0  0  0  0  0  0  0  0  0  0
   -1.5863   49.7536  -19.8887 O   0  0  0  0  0  0  0  0  0  0  0  0
   -0.9572   48.5170  -19.5353 S   0  0  2  0  0  0  0  0  0  0  0  0
   -1.6932   47.2961  -19.6050 O   0  0  0  0  0  0  0  0  0  0  0  0
    0.0910   49.8956  -17.4117 C   0  0  0  0  0  0  0  0  0  0  0  0
    0.6154   50.0451  -16.2013 N   0  0  0  0  0  0  0  0  0  0  0  0
    0.6101   48.9844  -15.3746 C   0  0  0  0  0  0  0  0  0  0  0  0
    1.0764   49.1816  -13.9630 C   0  0  0  0  0  0  0  0  0  0  0  0
    1.0066   48.2973  -13.1295 O   0  0  0  0  0  0  0  0  0  0  0  0
    1.5059   50.4061  -13.6333 N   0  0  0  0  0  0  0  0  0  0  0  0
    2.1625   50.6550  -12.3768 C   0  0  0  0  0  0  0  0  0  0  0  0
    2.4763   52.1062  -12.0725 C   0  0  0  0  0  0  0  0  0  0  0  0
    1.6983   53.0098  -12.1917 O   0  0  0  0  0  0  0  0  0  0  0  0
    3.6616   52.3533  -11.4895 O   0  0  0  0  0  0  0  0  0  0  0  0
    0.1004   47.7471  -15.7491 C   0  0  0  0  0  0  0  0  0  0  0  0
   -0.4071   47.6055  -17.0239 C   0  0  0  0  0  0  0  0  0  0  0  0
    0.3103   48.3586  -20.5608 N   0  0  0  0  0  0  0  0  0  0  0  0
    0.8980   47.0050  -20.6190 C   0  0  0  0  0  0  0  0  0  0  0  0
    1.9501   46.9129  -21.7332 C   0  0  0  0  0  0  0  0  0  0  0  0
    5.5660   49.0619  -24.1801 C   0  0  0  0  0  0  0  0  0  0  0  0
    6.0398   47.8604  -24.5882 C   0  0  0  0  0  0  0  0  0  0  0  0
    7.3798   47.8347  -25.6677 Cl  0  0  0  0  0  0  0  0  0  0  0  0
    5.5586   46.6867  -24.1098 C   0  0  0  0  0  0  0  0  0  0  0  0
  1  2  1  0
  2  3  1  0
  3  4  1  6
  4  5  2  0
  4  6  1  0
  8  9  2  0
  7  9  1  0
  9 10  2  0
  7 11  2  0
 11 12  1  0
 12 13  2  0
 13 14  1  0
 14 15  2  0
 14 16  1  0
 16 17  1  0
 17 18  1  0
 18 19  1  0
 18 20  2  0
 13 21  1  0
  7 22  1  0
 21 22  2  0
  1 23  1  0
  9 23  1  6
 23 24  1  0
  3 25  1  0
 24 25  1  0
  6 26  2  0
 26 27  1  0
 27 28  1  0
 27 29  2  0
  5 29  1  0
M  END
