7TM6_GPJ_A_502
     RDKit          3D

 10  9  0  0  0  0  0  0  0  0999 V2000
   -4.4075   -7.9468   18.4651 P   0  0  1  0  0  0  0  0  0  0  0  0
   -5.6209   -7.8562   19.3639 O   0  0  0  0  0  0  0  0  0  0  0  0
   -4.2483   -9.3326   17.8553 O   0  0  0  0  0  0  0  0  0  0  0  0
   -4.3197   -6.8002   17.4692 O   0  0  0  0  0  0  0  0  0  0  0  0
   -0.0260  -10.3705   17.5510 O   0  0  0  0  0  0  0  0  0  0  0  0
    0.5823  -10.5528   19.6692 O   0  0  0  0  0  0  0  0  0  0  0  0
   -2.8994   -7.7128   19.5139 C   0  0  0  0  0  0  0  0  0  0  0  0
   -0.6700   -8.5972   18.9992 C   0  0  0  0  0  0  0  0  0  0  0  0
    0.0075   -9.9307   18.7239 C   0  0  0  0  0  0  0  0  0  0  0  0
   -2.0356   -8.8848   19.4197 N   0  0  0  0  0  0  0  0  0  0  0  0
  1  2  2  0
  1  3  1  6
  1  4  1  0
  1  7  1  0
  5  9  1  0
  6  9  2  0
  8  9  1  0
  7 10  1  0
  8 10  1  0
M  CHG  1  10   1
M  END
