6YT6_PKE_A_701
     RDKit          3D

 52 55  0  0  0  0  0  0  0  0999 V2000
   -0.3895    0.4145    0.9306 C   0  0  0  0  0  0  0  0  0  0  0  0
    4.2794   -0.7471    0.9924 C   0  0  0  0  0  0  0  0  0  0  0  0
    4.6461   -0.4321   -0.4412 C   0  0  0  0  0  0  0  0  0  0  0  0
    5.8498   -0.9342   -0.9634 C   0  0  0  0  0  0  0  0  0  0  0  0
    6.2019   -0.6878   -2.2895 C   0  0  0  0  0  0  0  0  0  0  0  0
    5.3511    0.0680   -3.0921 C   0  0  0  0  0  0  0  0  0  0  0  0
    3.8264    0.3565   -1.2847 C   0  0  0  0  0  0  0  0  0  0  0  0
   -0.2679    0.7741   -0.4686 C   0  0  0  0  0  0  0  0  0  0  0  0
   -2.0984   -0.3463    2.6447 C   0  0  0  0  0  0  0  0  0  0  0  0
   -4.0832   -1.3243    3.7001 C   0  0  0  0  0  0  0  0  0  0  0  0
   -1.8927   -2.2751    4.0831 C   0  0  0  0  0  0  0  0  0  0  0  0
    0.7040   -0.2585    1.3759 N   0  0  0  0  0  0  0  0  0  0  0  0
   -0.4546    0.8040   -0.3711 N   0  0  0  0  0  0  0  0  0  0  0  0
    0.5650    0.5479   -1.2295 C   0  0  0  0  0  0  0  0  0  0  0  0
    1.6993   -0.1283   -0.7835 C   0  0  0  0  0  0  0  0  0  0  0  0
    1.7569   -0.5307    0.5595 C   0  0  0  0  0  0  0  0  0  0  0  0
    2.8973   -1.2160    1.1037 N   0  0  0  0  0  0  0  0  0  0  0  0
   -1.4800    0.6621    1.8286 N   0  0  0  0  0  0  0  0  0  0  0  0
    4.1986    0.5679   -2.5776 N   0  0  0  0  0  0  0  0  0  0  0  0
    2.5950    0.9271   -0.8232 N   0  0  0  0  0  0  0  0  0  0  0  0
    1.1070    0.3698   -1.5256 S   0  0  1  0  0  6  0  0  0  0  0  0
    2.6185    2.1868   -0.0820 C   0  0  0  0  0  0  0  0  0  0  0  0
    1.1570   -1.1236   -1.6906 O   0  0  0  0  0  0  0  0  0  0  0  0
    0.9162    1.0099   -2.8713 O   0  0  0  0  0  0  0  0  0  0  0  0
   -1.2884   -1.3139    3.2735 C   0  0  0  0  0  0  0  0  0  0  0  0
   -3.4967   -0.3476    2.8790 C   0  0  0  0  0  0  0  0  0  0  0  0
   -3.2559   -2.2789    4.2858 C   0  0  0  0  0  0  0  0  0  0  0  0
   -1.2428   -3.3921    4.8349 C   0  0  0  0  0  0  0  0  0  0  0  0
   -2.4526   -4.0037    5.4777 C   0  0  0  0  0  0  0  0  0  0  0  0
   -3.6606   -3.3289    5.1435 N   0  0  0  0  0  0  0  0  0  0  0  0
   -2.4182   -5.0080    6.2358 O   0  0  0  0  0  0  0  0  0  0  0  0
    4.4146    0.1684    1.6046 H   0  0  0  0  0  0  0  0  0  0  0  0
    4.9556   -1.5153    1.4262 H   0  0  0  0  0  0  0  0  0  0  0  0
    6.5127   -1.5291   -0.3475 H   0  0  0  0  0  0  0  0  0  0  0  0
    7.1249   -1.0837   -2.6928 H   0  0  0  0  0  0  0  0  0  0  0  0
    5.6083    0.2623   -4.1246 H   0  0  0  0  0  0  0  0  0  0  0  0
   -0.0362    0.4843    0.5756 H   0  0  0  0  0  0  0  0  0  0  0  0
   -0.4663    1.8644   -0.5100 H   0  0  0  0  0  0  0  0  0  0  0  0
   -1.1708    0.2269   -0.8095 H   0  0  0  0  0  0  0  0  0  0  0  0
   -5.1502   -1.3278    3.8815 H   0  0  0  0  0  0  0  0  0  0  0  0
    0.4930    0.8669   -2.2607 H   0  0  0  0  0  0  0  0  0  0  0  0
    2.5003   -0.3354   -1.4783 H   0  0  0  0  0  0  0  0  0  0  0  0
    2.7264   -2.0924    1.6465 H   0  0  0  0  0  0  0  0  0  0  0  0
   -1.7960    1.6519    1.9437 H   0  0  0  0  0  0  0  0  0  0  0  0
    2.8820    2.0014    0.9774 H   0  0  0  0  0  0  0  0  0  0  0  0
    1.6261    2.6821   -0.1112 H   0  0  0  0  0  0  0  0  0  0  0  0
    3.3619    2.8796   -0.5308 H   0  0  0  0  0  0  0  0  0  0  0  0
   -0.2158   -1.3211    3.1264 H   0  0  0  0  0  0  0  0  0  0  0  0
   -4.1284    0.4190    2.4507 H   0  0  0  0  0  0  0  0  0  0  0  0
   -0.7542   -4.1086    4.1418 H   0  0  0  0  0  0  0  0  0  0  0  0
   -0.5388   -3.0020    5.5999 H   0  0  0  0  0  0  0  0  0  0  0  0
   -4.6282   -3.5570    5.4628 H   0  0  0  0  0  0  0  0  0  0  0  0
  2  3  1  0
  3  4  4  0
  4  5  4  0
  5  6  4  0
  3  7  4  0
  1 12  4  0
  1 13  4  0
 13 14  4  0
 14 15  4  0
 15 16  4  0
 12 16  4  0
 16 17  1  0
  2 17  1  0
  1 18  1  0
  9 18  1  0
  6 19  4  0
  7 19  4  0
  7 20  1  0
 21 20  1  6
  8 21  1  0
 20 22  1  0
 21 23  2  0
 21 24  2  0
  9 25  4  0
 11 25  4  0
  9 26  4  0
 10 26  4  0
 11 27  4  0
 10 27  4  0
 11 28  1  0
 28 29  1  0
 27 30  1  0
 29 30  1  0
 29 31  2  0
  2 32  1  0
  2 33  1  0
  4 34  1  0
  5 35  1  0
  6 36  1  0
  8 37  1  0
  8 38  1  0
  8 39  1  0
 10 40  1  0
 14 41  1  0
 15 42  1  0
 17 43  1  0
 18 44  1  0
 22 45  1  0
 22 46  1  0
 22 47  1  0
 25 48  1  0
 26 49  1  0
 28 50  1  0
 28 51  1  0
 30 52  1  0
M  END
