7F5D_EUO_A_201
     RDKit          3D

 35 37  0  0  0  0  0  0  0  0999 V2000
   10.5429    0.4708    6.1410 C   0  0  0  0  0  0  0  0  0  0  0  0
   10.3993   -1.6274    5.4537 C   0  0  0  0  0  0  0  0  0  0  0  0
    7.1727    3.9623   11.5761 C   0  0  0  0  0  0  0  0  0  0  0  0
    6.6985    1.1407   11.2217 C   0  0  0  0  0  0  0  0  0  0  0  0
    5.9066   -0.9676   10.4951 C   0  0  0  0  0  0  0  0  0  0  0  0
    6.8146   -0.9444    9.4307 C   0  0  0  0  0  0  0  0  0  0  0  0
    7.6752    0.1575    9.2956 C   0  0  0  0  0  0  0  0  0  0  0  0
    8.6624    0.2500    8.1897 C   0  0  0  0  0  0  0  0  0  0  0  0
    8.9703   -0.8750    7.3839 C   0  0  0  0  0  0  0  0  0  0  0  0
    9.9123   -0.7208    6.3701 C   0  0  0  0  0  0  0  0  0  0  0  0
   10.2790    1.5977    6.9133 C   0  0  0  0  0  0  0  0  0  0  0  0
    9.3328    1.4805    7.9471 C   0  0  0  0  0  0  0  0  0  0  0  0
   11.3235   -0.9163    4.6948 C   0  0  0  0  0  0  0  0  0  0  0  0
    5.2679   -3.3670   10.0234 C   0  0  0  0  0  0  0  0  0  0  0  0
    5.8711    0.0749   11.3677 N   0  0  0  0  0  0  0  0  0  0  0  0
    7.5874    1.1744   10.1961 N   0  0  0  0  0  0  0  0  0  0  0  0
   11.4078    0.3655    5.1190 N   0  0  0  0  0  4  0  0  0  0  0  0
    5.0166   -2.0799   10.6600 N   0  0  0  0  0  0  0  0  0  0  0  0
    7.5243    2.1597   13.5372 O   0  0  0  0  0  0  0  0  0  0  0  0
    5.2222    2.6315   12.8583 O   0  0  0  0  0  0  0  0  0  0  0  0
    6.6323    2.4641   12.3667 S   0  0  1  0  0  6  0  0  0  0  0  0
   10.1246   -2.6684    5.3464 H   0  0  0  0  0  0  0  0  0  0  0  0
    6.5108    4.1865   10.7143 H   0  0  0  0  0  0  0  0  0  0  0  0
    8.2150    3.8371   11.2168 H   0  0  0  0  0  0  0  0  0  0  0  0
    7.1310    4.8011   12.3011 H   0  0  0  0  0  0  0  0  0  0  0  0
    6.8252   -1.7585    8.7180 H   0  0  0  0  0  0  0  0  0  0  0  0
    8.5162   -1.8426    7.5509 H   0  0  0  0  0  0  0  0  0  0  0  0
   10.7859    2.5354    6.7260 H   0  0  0  0  0  0  0  0  0  0  0  0
    9.1155    2.3527    8.5511 H   0  0  0  0  0  0  0  0  0  0  0  0
   11.9043   -1.3201    3.8762 H   0  0  0  0  0  0  0  0  0  0  0  0
    6.2362   -3.7794   10.3773 H   0  0  0  0  0  0  0  0  0  0  0  0
    4.4577   -4.0808   10.2824 H   0  0  0  0  0  0  0  0  0  0  0  0
    5.2974   -3.2423    8.9205 H   0  0  0  0  0  0  0  0  0  0  0  0
   12.0229    1.1148    4.7310 H   0  0  0  0  0  0  0  0  0  0  0  0
    4.1605   -1.9738   11.2505 H   0  0  0  0  0  0  0  0  0  0  0  0
  5  6  4  0
  6  7  4  0
  7  8  1  0
  8  9  4  0
  2 10  4  0
  9 10  4  0
  1 10  4  0
  1 11  4  0
  8 12  4  0
 11 12  4  0
  2 13  4  0
  4 15  4  0
  5 15  4  0
  4 16  4  0
  7 16  4  0
 13 17  4  0
  1 17  4  0
  5 18  1  0
 14 18  1  0
 21  3  1  6
 20 21  2  0
 19 21  2  0
  4 21  1  0
  2 22  1  0
  3 23  1  0
  3 24  1  0
  3 25  1  0
  6 26  1  0
  9 27  1  0
 11 28  1  0
 12 29  1  0
 13 30  1  0
 14 31  1  0
 14 32  1  0
 14 33  1  0
 17 34  1  0
 18 35  1  0
M  CHG  1  17   1
M  END
