7ZDY_6MJ_Y_903
     RDKit          3D

 11 11  0  0  0  0  0  0  0  0999 V2000
    3.8911   -1.4083   24.6189 C   0  0  0  0  0  0  0  0  0  0  0  0
    3.8351   -2.6650   24.0024 O   0  0  0  0  0  0  0  0  0  0  0  0
    3.3186   -2.5664   22.7185 C   0  0  1  0  0  0  0  0  0  0  0  0
    3.9189   -3.5774   21.8025 C   0  0  1  0  0  0  0  0  0  0  0  0
    3.4552   -4.9826   22.0911 C   0  0  2  0  0  0  0  0  0  0  0  0
    2.0328   -4.9966   22.5524 C   0  0  1  0  0  0  0  0  0  0  0  0
    1.3472   -3.7067   22.2230 C   0  0  0  0  0  0  0  0  0  0  0  0
    1.9485   -2.6297   22.8243 O   0  0  0  0  0  0  0  0  0  0  0  0
    1.3127   -6.0145   21.9295 O   0  0  0  0  0  0  0  0  0  0  0  0
    4.3082   -5.6492   22.9405 O   0  0  0  0  0  0  0  0  0  0  0  0
    3.6720   -3.2167   20.4714 O   0  0  0  0  0  0  0  0  0  0  0  0
  1  2  1  0
  3  2  1  1
  3  4  1  0
  4  5  1  0
  5  6  1  0
  6  7  1  0
  3  8  1  0
  7  8  1  0
  6  9  1  6
  5 10  1  1
  4 11  1  6
M  END
$$$$
