8B8H_OJQ_A_401
     RDKit          3D

 22 23  0  0  0  0  0  0  0  0999 V2000
   50.7980   24.5852   14.2481 C   0  0  0  0  0  0  0  0  0  0  0  0
   51.4943   23.9249   13.2450 C   0  0  0  0  0  0  0  0  0  0  0  0
   52.8860   24.0265   13.1549 C   0  0  0  0  0  0  0  0  0  0  0  0
   53.5348   24.7977   14.0859 C   0  0  0  0  0  0  0  0  0  0  0  0
   51.5332   25.3407   15.1457 C   0  0  0  0  0  0  0  0  0  0  0  0
   49.3206   22.9917   12.5958 N   0  0  0  0  0  0  0  0  0  0  0  0
   48.5402   22.9461   11.4018 C   0  0  0  0  0  0  0  0  0  0  0  0
   47.1622   22.8524   11.3334 C   0  0  0  0  0  0  0  0  0  0  0  0
   46.2452   22.7839   12.3758 O   0  0  0  0  0  0  0  0  0  0  0  0
   48.9571   22.9812   10.0834 C   0  0  0  0  0  0  0  0  0  0  0  0
   47.9039   22.9132    9.2988 O   0  0  0  0  0  0  0  0  0  0  0  0
   46.8108   22.8353   10.0172 N   0  0  0  0  0  0  0  0  0  0  0  0
   50.8521   26.0724   16.2419 C   0  0  0  0  0  0  0  0  0  0  0  0
   50.7036   23.1379   12.2870 C   0  0  0  0  0  0  0  0  0  0  0  0
   53.5330   23.2998   12.0521 C   0  0  0  0  0  0  0  0  0  0  0  0
   52.8716   25.4309   15.0474 N   0  0  0  0  0  0  0  0  0  0  0  0
   49.4203   24.4769   14.3273 O   0  0  0  0  0  0  0  0  0  0  0  0
   52.9513   21.3745    9.2420 O   0  0  0  0  0  0  0  0  0  0  0  0
   53.5305   23.7372    8.0563 O   0  0  0  0  0  0  0  0  0  0  0  0
   55.1865   22.5834    9.7259 O   0  0  0  0  0  0  0  0  0  0  0  0
   53.1312   23.7021   10.8184 O   0  0  0  0  0  0  0  0  0  0  0  0
   53.6937   22.8548    9.5093 P   0  0  2  0  0  5  0  0  0  0  0  0
  1  2  2  0
  2  3  1  0
  3  4  2  0
  1  5  1  0
  6  7  1  6
  7  8  1  0
  8  9  1  0
  7 10  2  0
 10 11  1  0
  8 12  2  0
 11 12  1  0
 13  5  1  1
  6 14  1  0
 14  2  1  6
  3 15  1  0
  5 16  2  0
  4 16  1  0
  1 17  1  0
 15 21  1  1
 20 22  2  0
 21 22  1  0
 22 18  1  6
 19 22  1  0
M  CHG  1   6   1
M  END
$$$$
