7N7B_T3F_A_302
     RDKit          3D

 35 37  0  0  0  0  0  0  0  0999 V2000
   15.3248    2.4828   28.6026 O   0  0  0  0  0  0  0  0  0  0  0  0
   16.6532    1.9990   29.5202 P   0  0  2  0  0  0  0  0  0  0  0  0
   17.3637    0.8138   28.8727 O   0  0  0  0  0  0  0  0  0  0  0  0
   16.2464    1.5114   31.0757 O   0  0  0  0  0  0  0  0  0  0  0  0
   14.9602    0.9784   31.1670 C   0  0  1  0  0  0  0  0  0  0  0  0
   14.8897   -0.2381   30.5737 O   0  0  0  0  0  0  0  0  0  0  0  0
   15.2809   -1.3309   31.2731 C   0  0  2  0  0  0  0  0  0  0  0  0
   14.3250   -2.4709   30.9597 C   0  0  0  0  0  0  0  0  0  0  0  0
   14.6053    0.9935   32.6310 C   0  0  2  0  0  0  0  0  0  0  0  0
   14.6883    2.3069   33.0635 O   0  0  0  0  0  0  0  0  0  0  0  0
   15.6970    0.1275   33.2764 C   0  0  1  0  0  0  0  0  0  0  0  0
   15.6223    0.1568   34.6999 N   0  0  0  0  0  0  0  0  0  0  0  0
   15.4925   -1.2476   32.7232 C   0  0  1  0  0  0  0  0  0  0  0  0
   14.4133   -1.8170   33.4345 O   0  0  0  0  0  0  0  0  0  0  0  0
   17.8044    3.2398   29.6684 O   0  0  0  0  0  0  0  0  0  0  0  0
   18.8871    2.9518   30.9342 P   0  0  1  0  0  0  0  0  0  0  0  0
   18.1292    3.4378   32.3617 O   0  0  0  0  0  0  0  0  0  0  0  0
   19.2432    1.4993   31.0647 O   0  0  0  0  0  0  0  0  0  0  0  0
   20.2823    3.8509   30.6293 O   0  0  0  0  0  0  0  0  0  0  0  0
   20.6873    3.6625   29.3252 C   0  0  0  0  0  0  0  0  0  0  0  0
   21.9745    4.3879   28.9785 C   0  0  1  0  0  0  0  0  0  0  0  0
   22.6671    4.5804   30.1961 O   0  0  0  0  0  0  0  0  0  0  0  0
   22.9541    3.5241   28.2281 C   0  0  1  0  0  0  0  0  0  0  0  0
   22.6956    3.4890   26.8664 O   0  0  0  0  0  0  0  0  0  0  0  0
   24.2620    4.2639   28.5229 C   0  0  0  0  0  0  0  0  0  0  0  0
   23.9195    5.0300   29.7744 C   0  0  2  0  0  0  0  0  0  0  0  0
   24.9197    4.9573   30.7964 N   0  0  0  0  0  0  0  0  0  0  0  0
   25.9858    5.7740   30.8376 C   0  0  0  0  0  0  0  0  0  0  0  0
   26.1424    6.6521   29.9550 O   0  0  0  0  0  0  0  0  0  0  0  0
   26.9072    5.6615   31.8325 N   0  0  0  0  0  0  0  0  0  0  0  0
   24.8183    4.0286   31.7902 C   0  0  0  0  0  0  0  0  0  0  0  0
   25.7293    3.9018   32.7920 C   0  0  0  0  0  0  0  0  0  0  0  0
   25.4977    2.8442   33.8148 C   0  0  0  0  0  0  0  0  0  0  0  0
   26.8083    4.7491   32.8093 C   0  0  0  0  0  0  0  0  0  0  0  0
   27.6422    4.6216   33.7399 O   0  0  0  0  0  0  0  0  0  0  0  0
  2  1  1  6
  2  3  2  0
  2  4  1  0
  5  4  1  1
  5  6  1  0
  6  7  1  0
  7  8  1  1
  5  9  1  0
  9 10  1  1
  9 11  1  0
 11 12  1  1
  7 13  1  0
 11 13  1  0
 13 14  1  1
  2 15  1  0
 15 16  1  0
 16 17  1  1
 16 18  2  0
 16 19  1  0
 19 20  1  0
 21 20  1  1
 21 22  1  0
 21 23  1  0
 23 24  1  6
 23 25  1  0
 22 26  1  0
 25 26  1  0
 26 27  1  1
 27 28  1  0
 28 29  2  0
 28 30  1  0
 27 31  1  0
 31 32  2  0
 32 33  1  0
 30 34  1  0
 32 34  1  0
 34 35  2  0
M  END
$$$$
