7RH8_UTP_A_301
     RDKit          3D

 29 30  0  0  0  0  0  0  0  0999 V2000
   -4.8518  -65.8254   14.7154 P   0  0  2  0  0  0  0  0  0  0  0  0
   -5.3893  -65.3922   13.3754 O   0  0  0  0  0  0  0  0  0  0  0  0
   -4.1783  -64.8363   15.5581 O   0  0  0  0  0  0  0  0  0  0  0  0
   -3.9017  -67.0942   14.4260 O   0  0  0  0  0  0  0  0  0  0  0  0
   -6.1868  -66.5321   15.4793 O   0  0  0  0  0  0  0  0  0  0  0  0
   -2.3726  -67.3574   14.8800 P   0  0  2  0  0  0  0  0  0  0  0  0
   -1.4965  -66.2330   15.3687 O   0  0  0  0  0  0  0  0  0  0  0  0
   -1.7247  -67.9554   13.6816 O   0  0  0  0  0  0  0  0  0  0  0  0
   -2.6935  -68.3573   16.1327 O   0  0  0  0  0  0  0  0  0  0  0  0
   -1.6650  -69.2916   16.9446 P   0  0  1  0  0  0  0  0  0  0  0  0
   -0.7531  -68.3640   17.7135 O   0  0  0  0  0  0  0  0  0  0  0  0
   -2.5161  -70.0422   17.9394 O   0  0  0  0  0  0  0  0  0  0  0  0
   -0.9487  -70.1584   15.8886 O   0  0  0  0  0  0  0  0  0  0  0  0
   -5.9972  -67.5114   16.4823 C   0  0  0  0  0  0  0  0  0  0  0  0
   -7.3973  -67.9863   16.9543 C   0  0  1  0  0  0  0  0  0  0  0  0
   -8.1746  -66.5928   17.0289 O   0  0  0  0  0  0  0  0  0  0  0  0
   -9.3533  -66.8664   16.5548 C   0  0  2  0  0  0  0  0  0  0  0  0
   -9.1592  -67.9804   15.5248 C   0  0  2  0  0  0  0  0  0  0  0  0
  -10.2700  -68.7743   15.2340 O   0  0  0  0  0  0  0  0  0  0  0  0
   -8.0006  -68.8000   16.0659 C   0  0  2  0  0  0  0  0  0  0  0  0
   -8.6778  -70.1106   16.5359 O   0  0  0  0  0  0  0  0  0  0  0  0
   -9.9066  -65.6388   15.9254 N   0  0  0  0  0  0  0  0  0  0  0  0
   -9.0628  -64.8707   15.1654 C   0  0  0  0  0  0  0  0  0  0  0  0
  -11.2129  -65.3711   16.0528 C   0  0  0  0  0  0  0  0  0  0  0  0
  -11.9010  -66.1037   16.7460 O   0  0  0  0  0  0  0  0  0  0  0  0
  -11.7063  -64.2873   15.4552 N   0  0  0  0  0  0  0  0  0  0  0  0
  -10.9161  -63.4964   14.7004 C   0  0  0  0  0  0  0  0  0  0  0  0
  -11.4455  -62.5446   14.1818 O   0  0  0  0  0  0  0  0  0  0  0  0
   -9.5697  -63.7491   14.5616 C   0  0  0  0  0  0  0  0  0  0  0  0
  1  2  2  0
  1  3  1  1
  1  4  1  0
  1  5  1  0
  4  6  1  0
  6  7  1  1
  6  8  2  0
  6  9  1  0
  9 10  1  0
 10 11  1  1
 10 12  2  0
 10 13  1  0
  5 14  1  0
 15 14  1  6
 15 16  1  0
 16 17  1  0
 17 18  1  0
 18 19  1  1
 15 20  1  0
 18 20  1  0
 20 21  1  1
 17 22  1  6
 22 23  1  0
 22 24  1  0
 24 25  2  0
 24 26  1  0
 26 27  1  0
 27 28  2  0
 23 29  2  0
 27 29  1  0
M  END
