7UQ3_O2U_A_502
     RDKit          3D

 12 12  0  0  0  0  0  0  0  0999 V2000
   12.7724  156.7446   95.7316 C   0  0  0  0  0  0  0  0  0  0  0  0
   14.1849  156.9853   96.0795 C   0  0  2  0  0  0  0  0  0  0  0  0
   14.4269  158.1693   96.9581 C   0  0  0  0  0  0  0  0  0  0  0  0
   14.0574  159.4701   96.3669 C   0  0  0  0  0  0  0  0  0  0  0  0
   14.7751  157.3304   94.7223 C   0  0  0  0  0  0  0  0  0  0  0  0
   13.9170  156.6538   93.7318 C   0  0  0  0  0  0  0  0  0  0  0  0
   12.7598  156.1795   94.4124 N   0  0  0  0  0  0  0  0  0  0  0  0
   11.8194  155.3398   93.8907 O   0  0  0  0  0  0  0  0  0  0  0  0
   14.1551  160.6368   97.1487 O   0  0  0  0  0  0  0  0  0  0  0  0
   13.6481  159.6018   95.1703 O   0  0  0  0  0  0  0  0  0  0  0  0
   14.2170  156.5505   92.5143 O   0  0  0  0  0  0  0  0  0  0  0  0
   11.7172  156.9541   96.3813 O   0  0  0  0  0  0  0  0  0  0  0  0
  1  2  1  0
  2  3  1  1
  3  4  1  0
  2  5  1  0
  5  6  1  0
  6  7  1  0
  1  7  1  0
  7  8  1  0
  4  9  1  0
  4 10  2  0
  6 11  2  0
  1 12  2  0
M  END
$$$$
