1N2V_BDI_A_900
     RDKit          3D

 15 16  0  0  0  0  0  0  0  0999 V2000
   17.4746   17.4059   20.7135 N   0  0  0  0  0  0  0  0  0  0  0  0
   16.4519   17.0884   19.8738 C   0  0  0  0  0  0  0  0  0  0  0  0
   16.5884   17.0326   18.3814 C   0  0  0  0  0  0  0  0  0  0  0  0
   16.3895   18.3953   17.7876 C   0  0  0  0  0  0  0  0  0  0  0  0
   16.5004   18.4481   16.3036 C   0  0  0  0  0  0  0  0  0  0  0  0
   16.3126   19.8112   15.7165 C   0  0  0  0  0  0  0  0  0  0  0  0
   15.3538   16.8481   20.6139 N   0  0  0  0  0  0  0  0  0  0  0  0
   15.7020   17.0186   21.9191 C   0  0  0  0  0  0  0  0  0  0  0  0
   15.0186   16.9141   23.1159 C   0  0  0  0  0  0  0  0  0  0  0  0
   15.6599   17.1519   24.2754 N   0  0  0  0  0  0  0  0  0  0  0  0
   16.9462   17.4886   24.3092 N   0  0  0  0  0  0  0  0  0  0  0  0
   17.6874   17.6123   23.1805 C   0  0  0  0  0  0  0  0  0  0  0  0
   18.9079   17.9335   23.2418 O   0  0  0  0  0  0  0  0  0  0  0  0
   17.0381   17.3703   21.9858 C   0  0  0  0  0  0  0  0  0  0  0  0
   13.7940   16.5954   23.1138 O   0  0  0  0  0  0  0  0  0  0  0  0
  1  2  2  0
  2  3  1  0
  3  4  1  0
  4  5  1  0
  5  6  1  0
  2  7  1  0
  7  8  1  0
  8  9  1  0
  9 10  1  0
 10 11  1  0
 11 12  1  0
 12 13  2  0
  1 14  1  0
  8 14  2  0
 12 14  1  0
  9 15  2  0
M  END
$$$$
