1N2V_BDI_A_900
     RDKit          3D

 15 16  0  0  0  0  0  0  0  0999 V2000
   17.3752   17.4146   20.6902 N   0  0  0  0  0  0  0  0  0  0  0  0
   16.3616   17.0833   19.8447 C   0  0  0  0  0  0  0  0  0  0  0  0
   16.5094   17.0215   18.3537 C   0  0  0  0  0  0  0  0  0  0  0  0
   16.4028   18.3951   17.7611 C   0  0  0  0  0  0  0  0  0  0  0  0
   17.1810   18.5924   16.5071 C   0  0  0  0  0  0  0  0  0  0  0  0
   16.6560   19.6731   15.6156 C   0  0  0  0  0  0  0  0  0  0  0  0
   15.2606   16.8360   20.5781 N   0  0  0  0  0  0  0  0  0  0  0  0
   15.5978   17.0162   21.8850 C   0  0  0  0  0  0  0  0  0  0  0  0
   14.9068   16.9109   23.0774 C   0  0  0  0  0  0  0  0  0  0  0  0
   15.5376   17.1604   24.2402 N   0  0  0  0  0  0  0  0  0  0  0  0
   16.8203   17.5096   24.2816 N   0  0  0  0  0  0  0  0  0  0  0  0
   17.5683   17.6350   23.1575 C   0  0  0  0  0  0  0  0  0  0  0  0
   18.7853   17.9682   23.2260 O   0  0  0  0  0  0  0  0  0  0  0  0
   16.9300   17.3809   21.9595 C   0  0  0  0  0  0  0  0  0  0  0  0
   13.6854   16.5805   23.0681 O   0  0  0  0  0  0  0  0  0  0  0  0
  1  2  2  0
  2  3  1  0
  3  4  1  0
  4  5  1  0
  5  6  1  0
  2  7  1  0
  7  8  1  0
  8  9  1  0
  9 10  1  0
 10 11  1  0
 11 12  1  0
 12 13  2  0
  1 14  1  0
  8 14  2  0
 12 14  1  0
  9 15  2  0
M  END
$$$$
