1N2V_BDI_A_900
     RDKit          3D

 15 16  0  0  0  0  0  0  0  0999 V2000
   17.6318   17.4186   20.7836 N   0  0  0  0  0  0  0  0  0  0  0  0
   16.6912   17.1127   19.8488 C   0  0  0  0  0  0  0  0  0  0  0  0
   16.9671   17.0688   18.3755 C   0  0  0  0  0  0  0  0  0  0  0  0
   16.1499   18.1031   17.6602 C   0  0  0  0  0  0  0  0  0  0  0  0
   16.3170   18.1123   16.1807 C   0  0  0  0  0  0  0  0  0  0  0  0
   15.4970   19.1428   15.4709 C   0  0  0  0  0  0  0  0  0  0  0  0
   15.5276   16.8710   20.4805 N   0  0  0  0  0  0  0  0  0  0  0  0
   15.7524   17.0290   21.8141 C   0  0  0  0  0  0  0  0  0  0  0  0
   14.9592   16.9175   22.9405 C   0  0  0  0  0  0  0  0  0  0  0  0
   15.4897   17.1428   24.1571 N   0  0  0  0  0  0  0  0  0  0  0  0
   16.7684   17.4735   24.3144 N   0  0  0  0  0  0  0  0  0  0  0  0
   17.6127   17.6033   23.2614 C   0  0  0  0  0  0  0  0  0  0  0  0
   18.8232   17.9187   23.4398 O   0  0  0  0  0  0  0  0  0  0  0  0
   17.0776   17.3742   22.0090 C   0  0  0  0  0  0  0  0  0  0  0  0
   13.7391   16.6043   22.8207 O   0  0  0  0  0  0  0  0  0  0  0  0
  1  2  2  0
  2  3  1  0
  3  4  1  0
  4  5  1  0
  5  6  1  0
  2  7  1  0
  7  8  1  0
  8  9  1  0
  9 10  1  0
 10 11  1  0
 11 12  1  0
 12 13  2  0
  1 14  1  0
  8 14  2  0
 12 14  1  0
  9 15  2  0
M  END
$$$$
