1N2V_BDI_A_900
     RDKit          3D

 15 16  0  0  0  0  0  0  0  0999 V2000
   17.6151   17.4935   20.6915 N   0  0  0  0  0  0  0  0  0  0  0  0
   16.6647   17.1708   19.7724 C   0  0  0  0  0  0  0  0  0  0  0  0
   16.9233   17.1069   18.2966 C   0  0  0  0  0  0  0  0  0  0  0  0
   16.2377   18.2424   17.5968 C   0  0  0  0  0  0  0  0  0  0  0  0
   16.4290   18.2682   16.1204 C   0  0  0  0  0  0  0  0  0  0  0  0
   15.7565   19.4113   15.4283 C   0  0  0  0  0  0  0  0  0  0  0  0
   15.5097   16.9338   20.4212 N   0  0  0  0  0  0  0  0  0  0  0  0
   15.7496   17.1116   21.7497 C   0  0  0  0  0  0  0  0  0  0  0  0
   14.9703   17.0132   22.8870 C   0  0  0  0  0  0  0  0  0  0  0  0
   15.5143   17.2577   24.0938 N   0  0  0  0  0  0  0  0  0  0  0  0
   16.7935   17.5954   24.2312 N   0  0  0  0  0  0  0  0  0  0  0  0
   17.6247   17.7135   23.1664 C   0  0  0  0  0  0  0  0  0  0  0  0
   18.8360   18.0358   23.3259 O   0  0  0  0  0  0  0  0  0  0  0  0
   17.0757   17.4645   21.9239 C   0  0  0  0  0  0  0  0  0  0  0  0
   13.7501   16.6937   22.7861 O   0  0  0  0  0  0  0  0  0  0  0  0
  1  2  2  0
  2  3  1  0
  3  4  1  0
  4  5  1  0
  5  6  1  0
  2  7  1  0
  7  8  1  0
  8  9  1  0
  9 10  1  0
 10 11  1  0
 11 12  1  0
 12 13  2  0
  1 14  1  0
  8 14  2  0
 12 14  1  0
  9 15  2  0
M  END
$$$$
