1N2V_BDI_A_900
     RDKit          3D

 15 16  0  0  0  0  0  0  0  0999 V2000
   17.4228   17.4795   20.7613 N   0  0  0  0  0  0  0  0  0  0  0  0
   16.4263   17.2088   19.8748 C   0  0  0  0  0  0  0  0  0  0  0  0
   16.6227   17.1738   18.3885 C   0  0  0  0  0  0  0  0  0  0  0  0
   16.4509   18.5453   17.8067 C   0  0  0  0  0  0  0  0  0  0  0  0
   16.5609   18.6087   16.3231 C   0  0  0  0  0  0  0  0  0  0  0  0
   16.3346   19.9689   15.7426 C   0  0  0  0  0  0  0  0  0  0  0  0
   15.2916   16.9910   20.5650 N   0  0  0  0  0  0  0  0  0  0  0  0
   15.5906   17.1284   21.8863 C   0  0  0  0  0  0  0  0  0  0  0  0
   14.8553   17.0255   23.0521 C   0  0  0  0  0  0  0  0  0  0  0  0
   15.4552   17.2233   24.2409 N   0  0  0  0  0  0  0  0  0  0  0  0
   16.7488   17.5184   24.3333 N   0  0  0  0  0  0  0  0  0  0  0  0
   17.5395   17.6375   23.2382 C   0  0  0  0  0  0  0  0  0  0  0  0
   18.7659   17.9188   23.3551 O   0  0  0  0  0  0  0  0  0  0  0  0
   16.9331   17.4363   22.0138 C   0  0  0  0  0  0  0  0  0  0  0  0
   13.6226   16.7459   22.9942 O   0  0  0  0  0  0  0  0  0  0  0  0
  1  2  2  0
  2  3  1  0
  3  4  1  0
  4  5  1  0
  5  6  1  0
  2  7  1  0
  7  8  1  0
  8  9  1  0
  9 10  1  0
 10 11  1  0
 11 12  1  0
 12 13  2  0
  1 14  1  0
  8 14  2  0
 12 14  1  0
  9 15  2  0
M  END
$$$$
