6Z0R_Q4H_A_301
     RDKit          3D

  9  9  0  0  0  0  0  0  0  0999 V2000
   40.2043    8.2973   41.8093 N   0  0  0  0  0  0  0  0  0  0  0  0
   40.9824    9.0648   41.3893 C   0  0  0  0  0  0  0  0  0  0  0  0
   41.9600   10.0031   40.8829 C   0  0  0  0  0  0  0  0  0  0  0  0
   41.7272   10.7261   39.7263 C   0  0  0  0  0  0  0  0  0  0  0  0
   42.6701   11.6020   39.2771 N   0  0  0  0  0  0  0  0  0  0  0  0
   43.8248   11.7677   39.9513 C   0  0  0  0  0  0  0  0  0  0  0  0
   44.0827   11.0682   41.0957 N   0  0  0  0  0  0  0  0  0  0  0  0
   43.1607   10.1937   41.5591 C   0  0  0  0  0  0  0  0  0  0  0  0
   43.3831    9.4320   42.7600 N   0  0  0  0  0  0  0  0  0  0  0  0
  1  2  3  0
  2  3  1  0
  3  4  2  0
  4  5  1  0
  5  6  2  0
  6  7  1  0
  7  8  2  0
  3  8  1  0
  8  9  1  0
M  END
$$$$
