1SG0_STL_B_502
     RDKit          3D

 17 18  0  0  0  0  0  0  0  0999 V2000
   15.8765    4.6717   25.5173 C   0  0  0  0  0  0  0  0  0  0  0  0
   14.6582    4.1014   25.2136 C   0  0  0  0  0  0  0  0  0  0  0  0
   13.5214    4.6379   25.7803 C   0  0  0  0  0  0  0  0  0  0  0  0
   13.6006    5.7179   26.6298 C   0  0  0  0  0  0  0  0  0  0  0  0
   14.8217    6.3195   26.9581 C   0  0  0  0  0  0  0  0  0  0  0  0
   15.9401    5.7619   26.3768 C   0  0  0  0  0  0  0  0  0  0  0  0
   14.8742    7.4633   27.8615 C   0  0  0  0  0  0  0  0  0  0  0  0
   14.9815    8.7042   27.4983 C   0  0  0  0  0  0  0  0  0  0  0  0
   15.0105    9.8442   28.4057 C   0  0  0  0  0  0  0  0  0  0  0  0
   14.1815   10.9394   28.2758 C   0  0  0  0  0  0  0  0  0  0  0  0
   14.2208   12.0182   29.1483 C   0  0  0  0  0  0  0  0  0  0  0  0
   15.1165   12.0184   30.1953 C   0  0  0  0  0  0  0  0  0  0  0  0
   15.9571   10.9390   30.3510 C   0  0  0  0  0  0  0  0  0  0  0  0
   15.9003    9.8792   29.4726 C   0  0  0  0  0  0  0  0  0  0  0  0
   15.2052   13.0635   31.0998 O   0  0  0  0  0  0  0  0  0  0  0  0
   12.2500    4.1001   25.5089 O   0  0  0  0  0  0  0  0  0  0  0  0
   17.0567    4.1518   24.9585 O   0  0  0  0  0  0  0  0  0  0  0  0
  1  2  2  0
  2  3  1  0
  3  4  2  0
  4  5  1  0
  1  6  1  0
  5  6  2  0
  5  7  1  0
  7  8  2  0
  8  9  1  0
  9 10  2  0
 10 11  1  0
 11 12  2  0
 12 13  1  0
  9 14  1  0
 13 14  2  0
 12 15  1  0
  3 16  1  0
  1 17  1  0
M  END
$$$$
