1SG0_STL_B_502
     RDKit          3D

 17 18  0  0  0  0  0  0  0  0999 V2000
   43.8375    6.4152   33.4426 C   0  0  0  0  0  0  0  0  0  0  0  0
   44.5091    5.6971   34.4095 C   0  0  0  0  0  0  0  0  0  0  0  0
   44.7146    6.2837   35.6404 C   0  0  0  0  0  0  0  0  0  0  0  0
   44.2599    7.5569   35.8983 C   0  0  0  0  0  0  0  0  0  0  0  0
   43.5749    8.3119   34.9384 C   0  0  0  0  0  0  0  0  0  0  0  0
   43.3845    7.6998   33.7182 C   0  0  0  0  0  0  0  0  0  0  0  0
   43.1048    9.6591   35.2408 C   0  0  0  0  0  0  0  0  0  0  0  0
   42.4868   10.4436   34.4126 C   0  0  0  0  0  0  0  0  0  0  0  0
   41.9910   11.7764   34.7312 C   0  0  0  0  0  0  0  0  0  0  0  0
   41.1735   12.5035   33.8908 C   0  0  0  0  0  0  0  0  0  0  0  0
   40.7090   13.7724   34.2081 C   0  0  0  0  0  0  0  0  0  0  0  0
   41.0658   14.3510   35.4067 C   0  0  0  0  0  0  0  0  0  0  0  0
   41.8810   13.6497   36.2667 C   0  0  0  0  0  0  0  0  0  0  0  0
   42.3299   12.3914   35.9305 C   0  0  0  0  0  0  0  0  0  0  0  0
   40.6360   15.6130   35.7819 O   0  0  0  0  0  0  0  0  0  0  0  0
   45.3928    5.6016   36.6670 O   0  0  0  0  0  0  0  0  0  0  0  0
   43.6096    5.8498   32.1762 O   0  0  0  0  0  0  0  0  0  0  0  0
  1  2  2  0
  2  3  1  0
  3  4  2  0
  4  5  1  0
  1  6  1  0
  5  6  2  0
  5  7  1  0
  7  8  2  0
  8  9  1  0
  9 10  2  0
 10 11  1  0
 11 12  2  0
 12 13  1  0
  9 14  1  0
 13 14  2  0
 12 15  1  0
  3 16  1  0
  1 17  1  0
M  END
$$$$
