1SG0_STL_B_502
     RDKit          3D

 17 18  0  0  0  0  0  0  0  0999 V2000
   56.5158   18.5122   22.1092 C   0  0  0  0  0  0  0  0  0  0  0  0
   57.0159   17.3553   21.5495 C   0  0  0  0  0  0  0  0  0  0  0  0
   57.0225   17.2391   20.1755 C   0  0  0  0  0  0  0  0  0  0  0  0
   56.5410   18.2543   19.3806 C   0  0  0  0  0  0  0  0  0  0  0  0
   56.0269   19.4408   19.9177 C   0  0  0  0  0  0  0  0  0  0  0  0
   56.0332   19.5285   21.2933 C   0  0  0  0  0  0  0  0  0  0  0  0
   55.5236   20.4995   19.0499 C   0  0  0  0  0  0  0  0  0  0  0  0
   54.4239   21.1631   19.2334 C   0  0  0  0  0  0  0  0  0  0  0  0
   53.8906   22.1702   18.3249 C   0  0  0  0  0  0  0  0  0  0  0  0
   52.7742   21.9694   17.5396 C   0  0  0  0  0  0  0  0  0  0  0  0
   52.2780   22.9384   16.6787 C   0  0  0  0  0  0  0  0  0  0  0  0
   52.9093   24.1597   16.5872 C   0  0  0  0  0  0  0  0  0  0  0  0
   54.0263   24.3899   17.3589 C   0  0  0  0  0  0  0  0  0  0  0  0
   54.5010   23.4131   18.2064 C   0  0  0  0  0  0  0  0  0  0  0  0
   52.4643   25.1677   15.7480 O   0  0  0  0  0  0  0  0  0  0  0  0
   57.5196   16.0834   19.5458 O   0  0  0  0  0  0  0  0  0  0  0  0
   56.4930   18.6664   23.5061 O   0  0  0  0  0  0  0  0  0  0  0  0
  1  2  2  0
  2  3  1  0
  3  4  2  0
  4  5  1  0
  1  6  1  0
  5  6  2  0
  5  7  1  0
  7  8  2  0
  8  9  1  0
  9 10  2  0
 10 11  1  0
 11 12  2  0
 12 13  1  0
  9 14  1  0
 13 14  2  0
 12 15  1  0
  3 16  1  0
  1 17  1  0
M  END
$$$$
