1SG0_STL_B_502
     RDKit          3D

 17 18  0  0  0  0  0  0  0  0999 V2000
   17.6575   35.5776   21.7879 C   0  0  0  0  0  0  0  0  0  0  0  0
   18.9216   35.8707   22.2546 C   0  0  0  0  0  0  0  0  0  0  0  0
   19.8663   34.8664   22.2696 C   0  0  0  0  0  0  0  0  0  0  0  0
   19.5551   33.6003   21.8289 C   0  0  0  0  0  0  0  0  0  0  0  0
   18.2815   33.2705   21.3493 C   0  0  0  0  0  0  0  0  0  0  0  0
   17.3585   34.2942   21.3462 C   0  0  0  0  0  0  0  0  0  0  0  0
   17.9811   31.9196   20.8888 C   0  0  0  0  0  0  0  0  0  0  0  0
   17.4424   31.6164   19.7482 C   0  0  0  0  0  0  0  0  0  0  0  0
   17.1860   30.2619   19.2755 C   0  0  0  0  0  0  0  0  0  0  0  0
   16.1648   29.9421   18.4047 C   0  0  0  0  0  0  0  0  0  0  0  0
   15.9328   28.6468   17.9632 C   0  0  0  0  0  0  0  0  0  0  0  0
   16.7427   27.6207   18.3987 C   0  0  0  0  0  0  0  0  0  0  0  0
   17.7706   27.9088   19.2685 C   0  0  0  0  0  0  0  0  0  0  0  0
   17.9820   29.2021   19.6933 C   0  0  0  0  0  0  0  0  0  0  0  0
   16.5639   26.3078   17.9957 O   0  0  0  0  0  0  0  0  0  0  0  0
   21.1729   35.1039   22.7342 O   0  0  0  0  0  0  0  0  0  0  0  0
   16.6685   36.5758   21.7577 O   0  0  0  0  0  0  0  0  0  0  0  0
  1  2  2  0
  2  3  1  0
  3  4  2  0
  4  5  1  0
  1  6  1  0
  5  6  2  0
  5  7  1  0
  7  8  2  0
  8  9  1  0
  9 10  2  0
 10 11  1  0
 11 12  2  0
 12 13  1  0
  9 14  1  0
 13 14  2  0
 12 15  1  0
  3 16  1  0
  1 17  1  0
M  END
$$$$
