1SG0_STL_B_502
     RDKit          3D

 17 18  0  0  0  0  0  0  0  0999 V2000
   30.6111   22.7373   -2.8428 C   0  0  0  0  0  0  0  0  0  0  0  0
   31.1143   24.0187   -2.9235 C   0  0  0  0  0  0  0  0  0  0  0  0
   31.4564   24.5140   -4.1640 C   0  0  0  0  0  0  0  0  0  0  0  0
   31.2992   23.7473   -5.2962 C   0  0  0  0  0  0  0  0  0  0  0  0
   30.7912   22.4433   -5.2481 C   0  0  0  0  0  0  0  0  0  0  0  0
   30.4582   21.9754   -3.9951 C   0  0  0  0  0  0  0  0  0  0  0  0
   30.6358   21.6547   -6.4651 C   0  0  0  0  0  0  0  0  0  0  0  0
   30.8040   20.3714   -6.5562 C   0  0  0  0  0  0  0  0  0  0  0  0
   30.6226   19.5859   -7.7702 C   0  0  0  0  0  0  0  0  0  0  0  0
   30.4229   18.2208   -7.7687 C   0  0  0  0  0  0  0  0  0  0  0  0
   30.2517   17.4859   -8.9336 C   0  0  0  0  0  0  0  0  0  0  0  0
   30.2784   18.1240  -10.1546 C   0  0  0  0  0  0  0  0  0  0  0  0
   30.4760   19.4863  -10.1884 C   0  0  0  0  0  0  0  0  0  0  0  0
   30.6436   20.1951   -9.0191 C   0  0  0  0  0  0  0  0  0  0  0  0
   30.1141   17.4481  -11.3523 O   0  0  0  0  0  0  0  0  0  0  0  0
   31.9747   25.8137   -4.3106 O   0  0  0  0  0  0  0  0  0  0  0  0
   30.2516   22.1987   -1.5954 O   0  0  0  0  0  0  0  0  0  0  0  0
  1  2  2  0
  2  3  1  0
  3  4  2  0
  4  5  1  0
  1  6  1  0
  5  6  2  0
  5  7  1  0
  7  8  2  0
  8  9  1  0
  9 10  2  0
 10 11  1  0
 11 12  2  0
 12 13  1  0
  9 14  1  0
 13 14  2  0
 12 15  1  0
  3 16  1  0
  1 17  1  0
M  END
$$$$
