1SG0_STL_B_502
     RDKit          3D

 17 18  0  0  0  0  0  0  0  0999 V2000
   44.9169   -5.1492   10.8082 C   0  0  0  0  0  0  0  0  0  0  0  0
   45.6930   -5.8343    9.8971 C   0  0  0  0  0  0  0  0  0  0  0  0
   46.2912   -5.1244    8.8775 C   0  0  0  0  0  0  0  0  0  0  0  0
   46.1180   -3.7632    8.7714 C   0  0  0  0  0  0  0  0  0  0  0  0
   45.3367   -3.0386    9.6798 C   0  0  0  0  0  0  0  0  0  0  0  0
   44.7515   -3.7746   10.6877 C   0  0  0  0  0  0  0  0  0  0  0  0
   45.1714   -1.5961    9.5417 C   0  0  0  0  0  0  0  0  0  0  0  0
   45.6973   -0.8649    8.6079 C   0  0  0  0  0  0  0  0  0  0  0  0
   45.5161    0.5743    8.4676 C   0  0  0  0  0  0  0  0  0  0  0  0
   46.5483    1.4835    8.5739 C   0  0  0  0  0  0  0  0  0  0  0  0
   46.3603    2.8519    8.4378 C   0  0  0  0  0  0  0  0  0  0  0  0
   45.0993    3.3470    8.1858 C   0  0  0  0  0  0  0  0  0  0  0  0
   44.0487    2.4640    8.0744 C   0  0  0  0  0  0  0  0  0  0  0  0
   44.2591    1.1096    8.2132 C   0  0  0  0  0  0  0  0  0  0  0  0
   44.8457    4.7007    8.0398 O   0  0  0  0  0  0  0  0  0  0  0  0
   47.0943   -5.7671    7.9176 O   0  0  0  0  0  0  0  0  0  0  0  0
   44.2915   -5.8394   11.8608 O   0  0  0  0  0  0  0  0  0  0  0  0
  1  2  2  0
  2  3  1  0
  3  4  2  0
  4  5  1  0
  1  6  1  0
  5  6  2  0
  5  7  1  0
  7  8  2  0
  8  9  1  0
  9 10  2  0
 10 11  1  0
 11 12  2  0
 12 13  1  0
  9 14  1  0
 13 14  2  0
 12 15  1  0
  3 16  1  0
  1 17  1  0
M  END
$$$$
