1SG0_STL_B_502
     RDKit          3D

 17 18  0  0  0  0  0  0  0  0999 V2000
   50.7571    7.7297    6.4659 C   0  0  0  0  0  0  0  0  0  0  0  0
   49.5456    7.9180    7.0971 C   0  0  0  0  0  0  0  0  0  0  0  0
   49.2774    7.1892    8.2365 C   0  0  0  0  0  0  0  0  0  0  0  0
   50.1977    6.2943    8.7328 C   0  0  0  0  0  0  0  0  0  0  0  0
   51.4363    6.0801    8.1157 C   0  0  0  0  0  0  0  0  0  0  0  0
   51.6761    6.8223    6.9793 C   0  0  0  0  0  0  0  0  0  0  0  0
   52.3917    5.1248    8.6651 C   0  0  0  0  0  0  0  0  0  0  0  0
   52.3701    3.8424    8.4691 C   0  0  0  0  0  0  0  0  0  0  0  0
   53.3893    2.9068    8.9270 C   0  0  0  0  0  0  0  0  0  0  0  0
   54.3593    3.2334    9.8521 C   0  0  0  0  0  0  0  0  0  0  0  0
   55.3238    2.3312   10.2788 C   0  0  0  0  0  0  0  0  0  0  0  0
   55.3335    1.0500    9.7716 C   0  0  0  0  0  0  0  0  0  0  0  0
   54.3777    0.6943    8.8464 C   0  0  0  0  0  0  0  0  0  0  0  0
   53.4300    1.6067    8.4377 C   0  0  0  0  0  0  0  0  0  0  0  0
   56.2685    0.1034   10.1562 O   0  0  0  0  0  0  0  0  0  0  0  0
   48.0592    7.3373    8.9247 O   0  0  0  0  0  0  0  0  0  0  0  0
   51.0655    8.4548    5.3021 O   0  0  0  0  0  0  0  0  0  0  0  0
  1  2  2  0
  2  3  1  0
  3  4  2  0
  4  5  1  0
  1  6  1  0
  5  6  2  0
  5  7  1  0
  7  8  2  0
  8  9  1  0
  9 10  2  0
 10 11  1  0
 11 12  2  0
 12 13  1  0
  9 14  1  0
 13 14  2  0
 12 15  1  0
  3 16  1  0
  1 17  1  0
M  END
$$$$
