7LZQ_YJV_A_201
     RDKit          3D

 22 24  0  0  0  0  0  0  0  0999 V2000
  -13.3484   -2.2810  -12.7131 C   0  0  0  0  0  0  0  0  0  0  0  0
  -12.9471   -1.2435  -15.2242 C   0  0  0  0  0  0  0  0  0  0  0  0
  -18.5327    1.6941  -21.1428 C   0  0  0  0  0  0  0  0  0  0  0  0
  -17.9802    0.9325  -20.1260 C   0  0  0  0  0  0  0  0  0  0  0  0
  -14.6445    2.0603  -19.9301 C   0  0  0  0  0  0  0  0  0  0  0  0
  -14.4000   -2.1925  -13.6016 C   0  0  0  0  0  0  0  0  0  0  0  0
  -16.6588    1.1096  -19.7686 C   0  0  0  0  0  0  0  0  0  0  0  0
  -15.8712    0.5305  -18.8449 N   0  0  0  0  0  0  0  0  0  0  0  0
  -16.2338   -0.5208  -17.9025 C   0  0  0  0  0  0  0  0  0  0  0  0
  -15.1566   -0.7420  -16.9046 C   0  0  0  0  0  0  0  0  0  0  0  0
  -14.0633   -0.1204  -17.1227 O   0  0  0  0  0  0  0  0  0  0  0  0
  -18.4216    3.4167  -22.8850 C   0  0  0  0  0  0  0  0  0  0  0  0
  -11.8944   -1.3422  -14.3080 C   0  0  0  0  0  0  0  0  0  0  0  0
  -14.6489    1.0963  -18.9315 C   0  0  0  0  0  0  0  0  0  0  0  0
  -16.5126    2.8099  -21.4733 C   0  0  0  0  0  0  0  0  0  0  0  0
  -14.2072   -1.6683  -14.8766 C   0  0  0  0  0  0  0  0  0  0  0  0
  -15.9348    2.0660  -20.4646 C   0  0  0  0  0  0  0  0  0  0  0  0
  -12.1068   -1.8588  -13.0654 N   0  0  0  0  0  0  0  0  0  0  0  0
  -15.3188   -1.5918  -15.7703 N   0  0  0  0  0  0  0  0  0  0  0  0
  -17.8190    2.6235  -21.8150 N   0  0  0  0  0  0  0  0  0  0  0  0
  -15.8704    3.6844  -22.1178 O   0  0  0  0  0  0  0  0  0  0  0  0
  -15.9746   -2.7606  -13.0679 Cl  0  0  0  0  0  0  0  0  0  0  0  0
  3  4  2  0
  1  6  2  0
  4  7  1  0
  7  8  1  0
  8  9  1  0
  9 10  1  0
 10 11  2  0
  2 13  1  0
  8 14  1  0
  5 14  2  0
  6 16  1  0
  2 16  2  0
  5 17  1  0
  7 17  2  0
 15 17  1  0
  1 18  1  0
 13 18  2  0
 16 19  1  0
 10 19  1  0
 15 20  1  0
  3 20  1  0
 12 20  1  0
 15 21  2  0
  6 22  1  0
M  END
$$$$
