1GM8_SOX_B_1559
     RDKit          3D

 44 46  0  0  0  0  0  0  0  0999 V2000
    2.3652    0.8520   -2.6836 O   0  0  0  0  0  0  0  0  0  0  0  0
    1.5173    1.1516   -1.8032 C   0  0  0  0  0  0  0  0  0  0  0  0
    1.5794    1.5107   -0.3682 N   0  0  0  0  0  0  0  0  0  0  0  0
    2.3431    0.9836    0.7491 C   0  0  1  0  0  0  0  0  0  0  0  0
    2.8460    2.1313    1.5841 C   0  0  0  0  0  0  0  0  0  0  0  0
    2.1012    3.1184    1.8315 O   0  0  0  0  0  0  0  0  0  0  0  0
    4.1284    2.0811    2.1206 O   0  0  0  0  0  0  0  0  0  0  0  0
    1.3529    0.0253    1.5010 C   0  0  0  0  0  0  0  0  0  0  0  0
    1.5484   -1.4157    0.9916 C   0  0  0  0  0  0  0  0  0  0  0  0
    1.5035    0.0358    3.0344 C   0  0  0  0  0  0  0  0  0  0  0  0
   -0.3224    0.6065    1.0443 S   0  0  1  0  0  4  0  0  0  0  0  0
    0.1470    1.6392   -0.3654 C   0  0  2  0  0  0  0  0  0  0  0  0
    0.0233    1.2123   -1.7466 C   0  0  2  0  0  0  0  0  0  0  0  0
   -0.5773   -0.1042   -1.9636 N   0  0  0  0  0  0  0  0  0  0  0  0
   -1.9721   -0.2541   -2.2621 C   0  0  0  0  0  0  0  0  0  0  0  0
   -2.7596    0.7213   -2.1261 O   0  0  0  0  0  0  0  0  0  0  0  0
   -2.5080   -1.5832   -2.7036 C   0  0  0  0  0  0  0  0  0  0  0  0
   -2.6132   -2.5190   -1.5313 C   0  0  0  0  0  0  0  0  0  0  0  0
   -1.5462   -3.3748   -1.2062 C   0  0  0  0  0  0  0  0  0  0  0  0
   -1.6223   -4.1980   -0.0786 C   0  0  0  0  0  0  0  0  0  0  0  0
   -2.7601   -4.1716    0.7325 C   0  0  0  0  0  0  0  0  0  0  0  0
   -3.8230   -3.3200    0.4189 C   0  0  0  0  0  0  0  0  0  0  0  0
   -3.7501   -2.4926   -0.7061 C   0  0  0  0  0  0  0  0  0  0  0  0
   -1.2968   -0.7113    0.5913 O   0  0  0  0  0  0  0  0  0  0  0  0
    3.2251    0.4288    0.3594 H   0  0  0  0  0  0  0  0  0  0  0  0
    4.4790    2.8349    2.6992 H   0  0  0  0  0  0  0  0  0  0  0  0
    2.5707   -1.7766    1.2362 H   0  0  0  0  0  0  0  0  0  0  0  0
    1.4172   -1.4649   -0.1094 H   0  0  0  0  0  0  0  0  0  0  0  0
    0.8171   -2.1066    1.4628 H   0  0  0  0  0  0  0  0  0  0  0  0
    1.2600    1.0350    3.4528 H   0  0  0  0  0  0  0  0  0  0  0  0
    0.8073   -0.6970    3.4963 H   0  0  0  0  0  0  0  0  0  0  0  0
    2.5426   -0.2318    3.3230 H   0  0  0  0  0  0  0  0  0  0  0  0
   -0.9355    1.3657    2.0376 H   0  0  0  0  0  0  0  0  0  0  0  0
   -0.1492    2.7011   -0.2163 H   0  0  0  0  0  0  0  0  0  0  0  0
   -0.3751    1.9904   -2.4344 H   0  0  0  0  0  0  0  0  0  0  0  0
    0.0394   -0.9445   -2.0433 H   0  0  0  0  0  0  0  0  0  0  0  0
   -3.5065   -1.4522   -3.1753 H   0  0  0  0  0  0  0  0  0  0  0  0
   -1.8370   -2.0095   -3.4806 H   0  0  0  0  0  0  0  0  0  0  0  0
   -0.6534   -3.3969   -1.8185 H   0  0  0  0  0  0  0  0  0  0  0  0
   -0.7965   -4.8523    0.1694 H   0  0  0  0  0  0  0  0  0  0  0  0
   -2.8165   -4.8078    1.6063 H   0  0  0  0  0  0  0  0  0  0  0  0
   -4.7009   -3.2960    1.0515 H   0  0  0  0  0  0  0  0  0  0  0  0
   -4.5736   -1.8255   -0.9292 H   0  0  0  0  0  0  0  0  0  0  0  0
   -1.5440   -1.1464    1.4457 H   0  0  0  0  0  0  0  0  0  0  0  0
  1  2  2  0
  2  3  1  0
  3  4  1  0
  4  5  1  0
  5  6  2  0
  5  7  1  0
  4  8  1  0
  8  9  1  0
  8 10  1  0
  8 11  1  0
 12  3  1  0
 11 12  1  0
  2 13  1  0
 12 13  1  0
 13 14  1  0
 14 15  1  0
 15 16  2  0
 15 17  1  0
 17 18  1  0
 18 19  2  0
 19 20  1  0
 20 21  2  0
 21 22  1  0
 18 23  1  0
 22 23  2  0
 11 24  1  0
  4 25  1  6
  7 26  1  0
  9 27  1  0
  9 28  1  0
  9 29  1  0
 10 30  1  0
 10 31  1  0
 10 32  1  0
 11 33  1  1
 12 34  1  6
 13 35  1  6
 14 36  1  0
 17 37  1  0
 17 38  1  0
 19 39  1  0
 20 40  1  0
 21 41  1  0
 22 42  1  0
 23 43  1  0
 24 44  1  0
M  END
