1NAV_IH5_A_600
     RDKit          3D

 39 40  0  0  0  0  0  0  0  0999 V2000
   -3.8314   -0.1340    3.4289 O   0  0  0  0  0  0  0  0  0  0  0  0
   -3.3220    1.1607    3.4349 C   0  0  0  0  0  0  0  0  0  0  0  0
   -3.9586    2.0912    2.8719 O   0  0  0  0  0  0  0  0  0  0  0  0
   -1.9957    1.4355    4.0673 C   0  0  0  0  0  0  0  0  0  0  0  0
   -0.8930    1.2037    3.0719 C   0  0  0  0  0  0  0  0  0  0  0  0
   -0.4542    2.2491    2.2460 C   0  0  0  0  0  0  0  0  0  0  0  0
    0.5459    2.0266    1.2942 C   0  0  0  0  0  0  0  0  0  0  0  0
    1.1031    0.7485    1.1409 C   0  0  0  0  0  0  0  0  0  0  0  0
    2.0932    0.5477    0.1699 O   0  0  0  0  0  0  0  0  0  0  0  0
    1.9906   -0.3634   -0.8923 C   0  0  0  0  0  0  0  0  0  0  0  0
    3.1470   -0.6979   -1.5994 C   0  0  0  0  0  0  0  0  0  0  0  0
    3.0895   -1.6012   -2.6609 C   0  0  0  0  0  0  0  0  0  0  0  0
    1.8701   -2.1820   -3.0355 C   0  0  0  0  0  0  0  0  0  0  0  0
    1.8371   -3.0868   -4.0968 O   0  0  0  0  0  0  0  0  0  0  0  0
    0.6871   -1.8476   -2.3404 C   0  0  0  0  0  0  0  0  0  0  0  0
    0.7607   -0.9276   -1.2758 C   0  0  0  0  0  0  0  0  0  0  0  0
   -0.6501   -2.4640   -2.7246 C   0  0  0  0  0  0  0  0  0  0  0  0
   -1.6363   -1.3907   -3.2014 C   0  0  0  0  0  0  0  0  0  0  0  0
   -1.2380   -3.2755   -1.5630 C   0  0  0  0  0  0  0  0  0  0  0  0
    0.6739   -0.3013    1.9776 C   0  0  0  0  0  0  0  0  0  0  0  0
   -0.3268   -0.0718    2.9280 C   0  0  0  0  0  0  0  0  0  0  0  0
    1.4070   -1.8978    1.8933 Cl  0  0  0  0  0  0  0  0  0  0  0  0
    1.0706    3.3547    0.2708 Cl  0  0  0  0  0  0  0  0  0  0  0  0
   -4.7200   -0.3405    2.9888 H   0  0  0  0  0  0  0  0  0  0  0  0
   -1.8639    0.7720    4.9493 H   0  0  0  0  0  0  0  0  0  0  0  0
   -1.9662    2.4827    4.4404 H   0  0  0  0  0  0  0  0  0  0  0  0
   -0.8922    3.2354    2.3399 H   0  0  0  0  0  0  0  0  0  0  0  0
    4.0969   -0.2604   -1.3197 H   0  0  0  0  0  0  0  0  0  0  0  0
    3.9980   -1.8525   -3.1935 H   0  0  0  0  0  0  0  0  0  0  0  0
    2.6750   -3.3389   -4.6078 H   0  0  0  0  0  0  0  0  0  0  0  0
   -0.1407   -0.6488   -0.7475 H   0  0  0  0  0  0  0  0  0  0  0  0
   -0.5169   -3.1720   -3.5705 H   0  0  0  0  0  0  0  0  0  0  0  0
   -1.1916   -0.8109   -4.0384 H   0  0  0  0  0  0  0  0  0  0  0  0
   -1.8991   -0.6914   -2.3797 H   0  0  0  0  0  0  0  0  0  0  0  0
   -2.5698   -1.8685   -3.5680 H   0  0  0  0  0  0  0  0  0  0  0  0
   -0.5071   -4.0417   -1.2263 H   0  0  0  0  0  0  0  0  0  0  0  0
   -2.1609   -3.7982   -1.8936 H   0  0  0  0  0  0  0  0  0  0  0  0
   -1.4940   -2.6215   -0.7026 H   0  0  0  0  0  0  0  0  0  0  0  0
   -0.6593   -0.8863    3.5602 H   0  0  0  0  0  0  0  0  0  0  0  0
  1  2  1  0
  2  3  2  0
  2  4  1  0
  4  5  1  0
  5  6  2  0
  6  7  1  0
  7  8  2  0
  8  9  1  0
  9 10  1  0
 10 11  2  0
 11 12  1  0
 12 13  2  0
 13 14  1  0
 13 15  1  0
 10 16  1  0
 15 16  2  0
 15 17  1  0
 17 18  1  0
 17 19  1  0
  8 20  1  0
  5 21  1  0
 20 21  2  0
 20 22  1  0
  7 23  1  0
  1 24  1  0
  4 25  1  0
  4 26  1  0
  6 27  1  0
 11 28  1  0
 12 29  1  0
 14 30  1  0
 16 31  1  0
 17 32  1  0
 18 33  1  0
 18 34  1  0
 18 35  1  0
 19 36  1  0
 19 37  1  0
 19 38  1  0
 21 39  1  0
M  END
