1NAV_IH5_A_600
     RDKit          3D

 39 40  0  0  0  0  0  0  0  0999 V2000
   44.3940   14.9073   16.5365 O   0  0  0  0  0  0  0  0  0  0  0  0
   43.6847   15.0085   17.6888 C   0  0  0  0  0  0  0  0  0  0  0  0
   42.4673   15.2201   17.7802 O   0  0  0  0  0  0  0  0  0  0  0  0
   44.5022   14.8668   18.8819 C   0  0  0  0  0  0  0  0  0  0  0  0
   45.8516   15.4965   18.9879 C   0  0  0  0  0  0  0  0  0  0  0  0
   46.0593   16.6183   18.1298 C   0  0  0  0  0  0  0  0  0  0  0  0
   47.2985   17.3146   18.1469 C   0  0  0  0  0  0  0  0  0  0  0  0
   48.3701   16.9103   19.0363 C   0  0  0  0  0  0  0  0  0  0  0  0
   49.5799   17.5154   19.1413 O   0  0  0  0  0  0  0  0  0  0  0  0
   49.7368   18.6842   20.0191 C   0  0  0  0  0  0  0  0  0  0  0  0
   49.1967   18.7580   21.3903 C   0  0  0  0  0  0  0  0  0  0  0  0
   49.3883   19.9458   22.1721 C   0  0  0  0  0  0  0  0  0  0  0  0
   50.0946   21.0793   21.6423 C   0  0  0  0  0  0  0  0  0  0  0  0
   50.2514   22.2078   22.4336 O   0  0  0  0  0  0  0  0  0  0  0  0
   50.6498   21.0444   20.2898 C   0  0  0  0  0  0  0  0  0  0  0  0
   50.4558   19.8361   19.4938 C   0  0  0  0  0  0  0  0  0  0  0  0
   51.4268   22.2942   19.7188 C   0  0  1  0  0  0  0  0  0  0  0  0
   52.7465   21.7717   19.1105 C   0  0  0  0  0  0  0  0  0  0  0  0
   50.6135   23.0687   18.6022 C   0  0  0  0  0  0  0  0  0  0  0  0
   48.1553   15.7994   19.8854 C   0  0  0  0  0  0  0  0  0  0  0  0
   46.9231   15.0724   19.8828 C   0  0  0  0  0  0  0  0  0  0  0  0
   49.3685   15.2804   20.9599 Cl  0  0  0  0  0  0  0  0  0  0  0  0
   47.5102   18.6062   17.1035 Cl  0  0  0  0  0  0  0  0  0  0  0  0
   45.3163   14.7450   16.5668 H   0  0  0  0  0  0  0  0  0  0  0  0
   43.9230   15.2585   19.6919 H   0  0  0  0  0  0  0  0  0  0  0  0
   44.7379   13.8231   18.8738 H   0  0  0  0  0  0  0  0  0  0  0  0
   45.3064   16.9253   17.4942 H   0  0  0  0  0  0  0  0  0  0  0  0
   48.6817   17.9563   21.7865 H   0  0  0  0  0  0  0  0  0  0  0  0
   49.0119   19.9868   23.1322 H   0  0  0  0  0  0  0  0  0  0  0  0
   49.8941   22.2261   23.2997 H   0  0  0  0  0  0  0  0  0  0  0  0
   50.8376   19.7975   18.5358 H   0  0  0  0  0  0  0  0  0  0  0  0
   51.5903   22.9881   20.5169 H   0  0  0  0  0  0  0  0  0  0  0  0
   52.5275   21.0843   18.3202 H   0  0  0  0  0  0  0  0  0  0  0  0
   53.3104   22.5939   18.7220 H   0  0  0  0  0  0  0  0  0  0  0  0
   53.3162   21.2747   19.8676 H   0  0  0  0  0  0  0  0  0  0  0  0
   50.4247   22.4122   17.7785 H   0  0  0  0  0  0  0  0  0  0  0  0
   49.6835   23.4075   19.0086 H   0  0  0  0  0  0  0  0  0  0  0  0
   51.1828   23.9095   18.2649 H   0  0  0  0  0  0  0  0  0  0  0  0
   46.7940   14.2594   20.5052 H   0  0  0  0  0  0  0  0  0  0  0  0
  1  2  1  0
  2  3  2  0
  2  4  1  0
  4  5  1  0
  5  6  2  0
  6  7  1  0
  7  8  2  0
  8  9  1  0
  9 10  1  0
 10 11  2  0
 11 12  1  0
 12 13  2  0
 13 14  1  0
 13 15  1  0
 10 16  1  0
 15 16  2  0
 15 17  1  0
 17 18  1  0
 17 19  1  0
  8 20  1  0
  5 21  1  0
 20 21  2  0
 20 22  1  0
  7 23  1  0
  1 24  1  0
  4 25  1  0
  4 26  1  0
  6 27  1  0
 11 28  1  0
 12 29  1  0
 14 30  1  0
 16 31  1  0
 17 32  1  6
 18 33  1  0
 18 34  1  0
 18 35  1  0
 19 36  1  0
 19 37  1  0
 19 38  1  0
 21 39  1  0
M  END
