7ODX_DGP_A_401
     RDKit          3D

 23 25  0  0  0  0  0  0  0  0999 V2000
  -32.2957   31.4180    7.6903 P   0  0  1  0  0  0  0  0  0  0  0  0
  -32.6673   32.8615    7.4413 O   0  0  0  0  0  0  0  0  0  0  0  0
  -33.2739   30.7986    8.9219 O   0  0  0  0  0  0  0  0  0  0  0  0
  -32.5203   30.4904    6.2953 O   0  0  0  0  0  0  0  0  0  0  0  0
  -30.6895   31.3292    8.1580 O   0  0  0  0  0  0  0  0  0  0  0  0
  -29.8261   31.1299    7.0585 C   0  0  0  0  0  0  0  0  0  0  0  0
  -28.9759   29.9297    7.4098 C   0  0  1  0  0  0  0  0  0  0  0  0
  -29.5800   29.3378    8.5370 O   0  0  0  0  0  0  0  0  0  0  0  0
  -28.9866   28.8833    6.3205 C   0  0  1  0  0  0  0  0  0  0  0  0
  -27.6953   28.8089    5.7840 O   0  0  0  0  0  0  0  0  0  0  0  0
  -29.2645   27.6113    7.1320 C   0  0  0  0  0  0  0  0  0  0  0  0
  -28.9670   28.0831    8.4941 C   0  0  2  0  0  0  0  0  0  0  0  0
  -29.5234   27.3075    9.5640 N   0  0  0  0  0  0  0  0  0  0  0  0
  -30.8185   26.9357    9.6183 C   0  0  0  0  0  0  0  0  0  0  0  0
  -31.0159   26.2253   10.7373 N   0  0  0  0  0  0  0  0  0  0  0  0
  -29.8650   26.1214   11.4270 C   0  0  0  0  0  0  0  0  0  0  0  0
  -29.4661   25.5300   12.6096 C   0  0  0  0  0  0  0  0  0  0  0  0
  -30.3734   24.9104   13.2579 O   0  0  0  0  0  0  0  0  0  0  0  0
  -28.2022   25.6099   13.0373 N   0  0  0  0  0  0  0  0  0  0  0  0
  -27.3137   26.2915   12.2752 C   0  0  0  0  0  0  0  0  0  0  0  0
  -25.9610   26.3820   12.7244 N   0  0  0  0  0  0  0  0  0  0  0  0
  -27.6672   26.8817   11.1149 N   0  0  0  0  0  0  0  0  0  0  0  0
  -28.9321   26.8116   10.6700 C   0  0  0  0  0  0  0  0  0  0  0  0
  1  2  2  0
  1  3  1  1
  1  4  1  0
  1  5  1  0
  5  6  1  0
  7  6  1  6
  7  8  1  0
  7  9  1  0
  9 10  1  1
  9 11  1  0
  8 12  1  0
 11 12  1  0
 12 13  1  1
 13 14  1  0
 14 15  2  0
 15 16  1  0
 16 17  1  0
 17 18  2  0
 17 19  1  0
 19 20  1  0
 20 21  1  0
 20 22  2  0
 13 23  1  0
 16 23  2  0
 22 23  1  0
M  END
$$$$
