7XBV_APC_A_601
     RDKit          3D

 49 51  0  0  0  0  0  0  0  0999 V2000
  -12.6415   -2.5041   -3.2665 P   0  0  2  0  0  5  0  0  0  0  0  0
  -11.3288   -2.7028   -2.5432 O   0  0  0  0  0  0  0  0  0  0  0  0
  -12.8687   -3.7846   -4.3529 O   0  0  0  0  0  0  0  0  0  0  0  0
  -12.5868   -1.0353   -4.1080 O   0  0  0  0  0  0  0  0  0  0  0  0
  -13.1769   -2.4198   -0.5704 P   0  0  2  0  0  5  0  0  0  0  0  0
  -12.0050   -3.3759   -0.5322 O   0  0  0  0  0  0  0  0  0  0  0  0
  -14.2870   -2.8160    0.6494 O   0  0  0  0  0  0  0  0  0  0  0  0
  -13.8920   -2.4556   -2.1149 O   0  0  0  0  0  0  0  0  0  0  0  0
  -11.3689   -0.2624   -1.5565 P   0  0  2  0  0  5  0  0  0  0  0  0
  -12.1076   -0.1073   -2.8671 O   0  0  0  0  0  0  0  0  0  0  0  0
  -10.2061   -1.4885   -1.7017 O   0  0  0  0  0  0  0  0  0  0  0  0
  -12.5573   -0.7384   -0.2665 C   0  0  0  0  0  0  0  0  0  0  0  0
  -10.6622    1.2307   -1.1270 O   0  0  0  0  0  0  0  0  0  0  0  0
  -10.4260    1.2374    0.2605 C   0  0  0  0  0  0  0  0  0  0  0  0
  -10.4750   -0.1989    0.7983 C   0  0  2  0  0  0  0  0  0  0  0  0
  -10.0561   -1.0849   -0.2202 O   0  0  0  0  0  0  0  0  0  0  0  0
  -11.8841   -0.5940    1.2534 C   0  0  2  0  0  0  0  0  0  0  0  0
  -11.8104   -1.4603    2.3578 O   0  0  0  0  0  0  0  0  0  0  0  0
  -12.4165   -1.3230    0.0487 C   0  0  2  0  0  0  0  0  0  0  0  0
  -13.3277   -2.3343    0.3927 O   0  0  0  0  0  0  0  0  0  0  0  0
  -11.1522   -1.9070   -0.5619 C   0  0  1  0  0  0  0  0  0  0  0  0
  -11.2761   -2.0024   -2.0171 N   0  0  0  0  0  4  0  0  0  0  0  0
  -10.7521   -2.9462   -2.8429 C   0  0  0  0  0  0  0  0  0  0  0  0
  -10.9748   -2.6929   -4.1624 N   0  0  0  0  0  0  0  0  0  0  0  0
  -11.6565   -1.5319   -4.1307 C   0  0  0  0  0  0  0  0  0  0  0  0
  -12.1476   -0.7656   -5.1814 C   0  0  0  0  0  0  0  0  0  0  0  0
  -11.9903   -1.1660   -6.5429 N   0  0  0  0  0  0  0  0  0  0  0  0
  -12.7907    0.3992   -4.8684 N   0  0  0  0  0  0  0  0  0  0  0  0
  -12.9468    0.8023   -3.5660 C   0  0  0  0  0  0  0  0  0  0  0  0
  -12.4613    0.0389   -2.5404 N   0  0  0  0  0  0  0  0  0  0  0  0
  -11.8282   -1.1170   -2.8551 C   0  0  0  0  0  0  0  0  0  0  0  0
  -12.1349   -3.6926   -5.0112 H   0  0  0  0  0  0  0  0  0  0  0  0
  -11.8195   -1.1252   -4.7278 H   0  0  0  0  0  0  0  0  0  0  0  0
  -14.1404   -3.7776    0.8359 H   0  0  0  0  0  0  0  0  0  0  0  0
   -9.8657   -1.4163   -2.6289 H   0  0  0  0  0  0  0  0  0  0  0  0
  -12.0581   -0.7054    0.7238 H   0  0  0  0  0  0  0  0  0  0  0  0
  -13.4078   -0.0261   -0.2708 H   0  0  0  0  0  0  0  0  0  0  0  0
  -11.2080    1.8297    0.7898 H   0  0  0  0  0  0  0  0  0  0  0  0
   -9.4226    1.6649    0.4834 H   0  0  0  0  0  0  0  0  0  0  0  0
   -9.7617   -0.2732    1.6488 H   0  0  0  0  0  0  0  0  0  0  0  0
  -12.5308    0.2792    1.4933 H   0  0  0  0  0  0  0  0  0  0  0  0
  -11.6631   -0.8872    3.1554 H   0  0  0  0  0  0  0  0  0  0  0  0
  -12.8867   -0.5953   -0.6555 H   0  0  0  0  0  0  0  0  0  0  0  0
  -14.1691   -1.8754    0.6506 H   0  0  0  0  0  0  0  0  0  0  0  0
  -10.9610   -2.9199   -0.1401 H   0  0  0  0  0  0  0  0  0  0  0  0
  -10.2025   -3.8105   -2.4931 H   0  0  0  0  0  0  0  0  0  0  0  0
  -11.4920   -2.0498   -6.7896 H   0  0  0  0  0  0  0  0  0  0  0  0
  -12.3753   -0.5736   -7.3113 H   0  0  0  0  0  0  0  0  0  0  0  0
  -13.4587    1.7296   -3.3492 H   0  0  0  0  0  0  0  0  0  0  0  0
  1  2  2  0
  1  3  1  1
  1  4  1  0
  5  6  2  0
  5  7  1  6
  1  8  1  0
  5  8  1  0
  9 10  2  0
  9 11  1  1
  5 12  1  0
  9 12  1  0
  9 13  1  0
 13 14  1  0
 15 14  1  0
 15 16  1  0
 15 17  1  0
 17 18  1  0
 17 19  1  0
 19 20  1  0
 16 21  1  0
 19 21  1  0
 21 22  1  0
 22 23  4  0
 23 24  4  0
 24 25  4  0
 25 26  4  0
 26 27  1  0
 26 28  4  0
 28 29  4  0
 29 30  4  0
 22 31  4  0
 25 31  4  0
 30 31  4  0
  3 32  1  0
  4 33  1  0
  7 34  1  0
 11 35  1  0
 12 36  1  0
 12 37  1  0
 14 38  1  0
 14 39  1  0
 15 40  1  6
 17 41  1  6
 18 42  1  0
 19 43  1  1
 20 44  1  0
 21 45  1  6
 23 46  1  0
 27 47  1  0
 27 48  1  0
 29 49  1  0
M  CHG  1  22   1
M  END
