1TT1_KAI_A_998
     RDKit          3D

 30 30  0  0  0  0  0  0  0  0999 V2000
   -1.6238    1.2955   -0.6165 N   0  0  0  0  0  0  0  0  0  0  0  0
   -2.3124   -0.0039   -0.5616 C   0  0  0  0  0  0  0  0  0  0  0  0
   -0.7413   -3.0627    0.8082 C   0  0  0  0  0  0  0  0  0  0  0  0
   -0.8651   -0.9190    1.9880 C   0  0  0  0  0  0  0  0  0  0  0  0
   -0.1943    1.0267   -0.8395 C   0  0  1  0  0  0  0  0  0  0  0  0
   -0.0835   -0.4206   -1.3212 C   0  0  1  0  0  0  0  0  0  0  0  0
    1.3111   -1.0942   -1.2177 C   0  0  0  0  0  0  0  0  0  0  0  0
   -1.2620   -1.1196   -0.6437 C   0  0  1  0  0  0  0  0  0  0  0  0
    2.0391   -0.9062    0.0823 C   0  0  0  0  0  0  0  0  0  0  0  0
   -0.9521   -1.7394    0.7207 C   0  0  0  0  0  0  0  0  0  0  0  0
    0.4303    2.0049   -1.8033 C   0  0  0  0  0  0  0  0  0  0  0  0
    0.0045    2.0995   -2.9864 O   0  0  0  0  0  0  0  0  0  0  0  0
    2.6605    0.3065    0.3645 O   0  0  0  0  0  0  0  0  0  0  0  0
    2.1380   -1.8629    0.8960 O   0  0  0  0  0  0  0  0  0  0  0  0
    1.4886    2.8049   -1.3839 O   0  0  0  0  0  0  0  0  0  0  0  0
   -2.0293    1.8458   -1.4106 H   0  0  0  0  0  0  0  0  0  0  0  0
   -2.9303   -0.0681    0.3594 H   0  0  0  0  0  0  0  0  0  0  0  0
   -3.0107   -0.0989   -1.4254 H   0  0  0  0  0  0  0  0  0  0  0  0
   -0.5171   -3.5288    1.7634 H   0  0  0  0  0  0  0  0  0  0  0  0
   -0.7805   -3.6979   -0.0714 H   0  0  0  0  0  0  0  0  0  0  0  0
    0.1276   -1.0551    2.4650 H   0  0  0  0  0  0  0  0  0  0  0  0
   -1.6502   -1.2520    2.6992 H   0  0  0  0  0  0  0  0  0  0  0  0
   -1.0078    0.1624    1.8032 H   0  0  0  0  0  0  0  0  0  0  0  0
    0.3118    1.1409    0.1397 H   0  0  0  0  0  0  0  0  0  0  0  0
   -0.3293   -0.4268   -2.4098 H   0  0  0  0  0  0  0  0  0  0  0  0
    1.2040   -2.1801   -1.4307 H   0  0  0  0  0  0  0  0  0  0  0  0
    1.9578   -0.6797   -2.0210 H   0  0  0  0  0  0  0  0  0  0  0  0
   -1.6503   -1.9145   -1.3223 H   0  0  0  0  0  0  0  0  0  0  0  0
    3.1675    0.4413    1.2309 H   0  0  0  0  0  0  0  0  0  0  0  0
    1.9237    3.4650   -2.0172 H   0  0  0  0  0  0  0  0  0  0  0  0
  1  2  1  0
  1  5  1  0
  5  6  1  0
  6  7  1  0
  2  8  1  0
  6  8  1  0
  7  9  1  0
  3 10  2  0
  4 10  1  0
  8 10  1  0
  5 11  1  0
 11 12  2  0
  9 13  1  0
  9 14  2  0
 11 15  1  0
  1 16  1  0
  2 17  1  0
  2 18  1  0
  3 19  1  0
  3 20  1  0
  4 21  1  0
  4 22  1  0
  4 23  1  0
  5 24  1  1
  6 25  1  6
  7 26  1  0
  7 27  1  0
  8 28  1  6
 13 29  1  0
 15 30  1  0
M  END
