@<TRIPOS>MOLECULE
1TT1_KAI_A_998
 30 30 0 0 0
SMALL
GASTEIGER

@<TRIPOS>ATOM
      1 N          -1.6238    1.2955   -0.6165 N.3     1  UNL1       -0.3033
      2 C          -2.3124   -0.0039   -0.5616 C.3     1  UNL1        0.0035
      3 C          -0.7413   -3.0627    0.8082 C.2     1  UNL1       -0.0994
      4 C          -0.8651   -0.9190    1.9880 C.3     1  UNL1       -0.0437
      5 CA         -0.1943    1.0267   -0.8395 C.3     1  UNL1        0.1096
      6 C          -0.0835   -0.4206   -1.3212 C.3     1  UNL1        0.0024
      7 C           1.3111   -1.0942   -1.2177 C.3     1  UNL1        0.0501
      8 C          -1.2620   -1.1196   -0.6437 C.3     1  UNL1       -0.0026
      9 C           2.0391   -0.9062    0.0823 C.2     1  UNL1        0.3050
     10 C          -0.9521   -1.7394    0.7207 C.2     1  UNL1       -0.0751
     11 C           0.4303    2.0049   -1.8033 C.2     1  UNL1        0.3222
     12 O           0.0045    2.0995   -2.9864 O.2     1  UNL1       -0.2492
     13 O           2.6605    0.3065    0.3645 O.3     1  UNL1       -0.4806
     14 O           2.1380   -1.8629    0.8960 O.2     1  UNL1       -0.2510
     15 OXT         1.4886    2.8049   -1.3839 O.3     1  UNL1       -0.4795
     16 H          -2.0293    1.8458   -1.4106 H       1  UNL1        0.1227
     17 H          -2.9303   -0.0681    0.3594 H       1  UNL1        0.0430
     18 H          -3.0107   -0.0989   -1.4254 H       1  UNL1        0.0430
     19 H          -0.5171   -3.5288    1.7634 H       1  UNL1        0.0534
     20 H          -0.7805   -3.6979   -0.0714 H       1  UNL1        0.0534
     21 H           0.1276   -1.0551    2.4650 H       1  UNL1        0.0274
     22 H          -1.6502   -1.2520    2.6992 H       1  UNL1        0.0274
     23 H          -1.0078    0.1624    1.8032 H       1  UNL1        0.0274
     24 HA          0.3118    1.1409    0.1397 H       1  UNL1        0.0579
     25 H          -0.3293   -0.4268   -2.4098 H       1  UNL1        0.0332
     26 H           1.2040   -2.1801   -1.4307 H       1  UNL1        0.0381
     27 H           1.9578   -0.6797   -2.0210 H       1  UNL1        0.0381
     28 H          -1.6503   -1.9145   -1.3223 H       1  UNL1        0.0361
     29 H           3.1675    0.4413    1.2309 H       1  UNL1        0.2951
     30 HXT         1.9237    3.4650   -2.0172 H       1  UNL1        0.2951
@<TRIPOS>BOND
     1     1     2    1
     2     1     5    1
     3     5     6    1
     4     6     7    1
     5     2     8    1
     6     6     8    1
     7     7     9    1
     8     3    10    2
     9     4    10    1
    10     8    10    1
    11     5    11    1
    12    11    12    2
    13     9    13    1
    14     9    14    2
    15    11    15    1
    16     1    16    1
    17     2    17    1
    18     2    18    1
    19     3    19    1
    20     3    20    1
    21     4    21    1
    22     4    22    1
    23     4    23    1
    24     5    24    1
    25     6    25    1
    26     7    26    1
    27     7    27    1
    28     8    28    1
    29    13    29    1
    30    15    30    1
