8BPL_CP_A_2401
     RDKit          3D

  8  7  0  0  0  0  0  0  0  0999 V2000
  -28.2114   31.1066    9.3594 N   0  0  0  0  0  0  0  0  0  0  0  0
  -27.8342   30.1713    8.3962 C   0  0  0  0  0  0  0  0  0  0  0  0
  -28.3303   29.0791    8.3743 O   0  0  0  0  0  0  0  0  0  0  0  0
  -26.9120   30.6952    7.5076 O   0  0  0  0  0  0  0  0  0  0  0  0
  -26.4962   29.8241    6.1853 P   0  0  2  0  0  0  0  0  0  0  0  0
  -27.6842   29.8648    5.2533 O   0  0  0  0  0  0  0  0  0  0  0  0
  -26.0555   28.4208    6.6206 O   0  0  0  0  0  0  0  0  0  0  0  0
  -25.3681   30.7004    5.6868 O   0  0  0  0  0  0  0  0  0  0  0  0
  1  2  1  0
  2  3  2  0
  2  4  1  0
  4  5  1  0
  5  6  2  0
  5  7  1  1
  5  8  1  0
M  END
