
     RDKit          3D

 25 26  0  0  0  0  0  0  0  0999 V2000
   33.8599   -9.4764   64.8926 C   0  0  0  0  0  0  0  0  0  0  0  0
   32.6231   -8.9376   64.5073 C   0  0  0  0  0  0  0  0  0  0  0  0
   31.4165   -9.5468   64.9649 C   0  0  0  0  0  0  0  0  0  0  0  0
   31.5207  -10.7263   65.7218 C   0  0  0  0  0  0  0  0  0  0  0  0
   32.7637  -11.2624   66.0845 C   0  0  0  0  0  0  0  0  0  0  0  0
   33.9344  -10.6275   65.6772 C   0  0  0  0  0  0  0  0  0  0  0  0
   32.7832  -12.4996   66.9020 C   0  0  0  0  0  0  0  0  0  0  0  0
   32.0154  -13.4768   66.3878 O   0  0  0  0  0  0  0  0  0  0  0  0
   33.4045  -12.6644   67.9354 O   0  0  0  0  0  0  0  0  0  0  0  0
   30.1738   -9.0251   64.5525 N   0  0  0  0  0  0  0  0  0  0  0  0
   29.3568   -9.6334   63.4920 C   0  0  0  0  0  0  0  0  0  0  0  0
   28.1147   -8.7553   63.2412 C   0  0  0  0  0  0  0  0  0  0  0  0
   29.0108  -11.0849   63.9016 C   0  0  0  0  0  0  0  0  0  0  0  0
   27.1620   -8.7018   64.4267 C   0  0  0  0  0  0  0  0  0  0  0  0
   27.9705  -11.7746   63.0270 C   0  0  0  0  0  0  0  0  0  0  0  0
   32.6071   -7.7939   63.6582 N   0  0  0  0  0  0  0  0  0  0  0  0
   33.1600   -7.7485   62.2906 C   0  0  1  0  0  0  0  0  0  0  0  0
   32.3836   -6.5440   61.6965 C   0  0  0  0  0  0  0  0  0  0  0  0
   32.0958   -5.6297   62.8712 C   0  0  0  0  0  0  0  0  0  0  0  0
   31.9712   -6.5992   64.0102 C   0  0  0  0  0  0  0  0  0  0  0  0
   31.3897   -6.3424   65.0568 O   0  0  0  0  0  0  0  0  0  0  0  0
   34.6830   -7.4545   62.2186 C   0  0  0  0  0  0  0  0  0  0  0  0
   35.1958   -6.9431   63.4473 O   0  0  0  0  0  0  0  0  0  0  0  0
   32.8038   -8.9873   61.4021 C   0  0  0  0  0  0  0  0  0  0  0  0
   31.3837   -9.2002   61.1034 N   0  0  0  0  0  0  0  0  0  0  0  0
  1  2  4  0
  2  3  4  0
  3  4  4  0
  4  5  4  0
  1  6  4  0
  5  6  4  0
  5  7  1  0
  7  8  1  0
  7  9  2  0
  3 10  1  0
 10 11  1  0
 11 12  1  0
 11 13  1  0
 12 14  1  0
 13 15  1  0
  2 16  1  0
 16 17  1  0
 17 18  1  0
 18 19  1  0
 16 20  1  0
 19 20  1  0
 20 21  2  0
 17 22  1  1
 22 23  1  0
 17 24  1  0
 24 25  1  0
M  END
