1LRH_NLA_D_8190
     RDKit          3D

 14 15  0  0  0  0  0  0  0  0999 V2000
   20.2940   53.2348   83.4899 C   0  0  0  0  0  0  0  0  0  0  0  0
   20.2674   52.2104   84.4359 C   0  0  0  0  0  0  0  0  0  0  0  0
   19.9632   52.5868   85.7362 C   0  0  0  0  0  0  0  0  0  0  0  0
   19.6990   53.8799   86.1047 C   0  0  0  0  0  0  0  0  0  0  0  0
   19.7306   54.8786   85.1528 C   0  0  0  0  0  0  0  0  0  0  0  0
   20.0293   54.5456   83.8474 C   0  0  0  0  0  0  0  0  0  0  0  0
   20.0485   55.5834   82.9310 C   0  0  0  0  0  0  0  0  0  0  0  0
   20.3472   55.2563   81.6222 C   0  0  0  0  0  0  0  0  0  0  0  0
   20.6180   53.9598   81.2221 C   0  0  0  0  0  0  0  0  0  0  0  0
   20.5911   52.9306   82.1718 C   0  0  0  0  0  0  0  0  0  0  0  0
   20.5420   50.8163   84.0900 C   0  0  0  0  0  0  0  0  0  0  0  0
   19.3642   50.2009   83.4287 C   0  0  0  0  0  0  0  0  0  0  0  0
   18.1785   50.6371   83.6166 O   0  0  0  0  0  0  0  0  0  0  0  0
   19.5336   49.1086   82.5691 O   0  0  0  0  0  0  0  0  0  0  0  0
  1  2  2  0
  2  3  1  0
  3  4  2  0
  4  5  1  0
  1  6  1  0
  5  6  2  0
  6  7  1  0
  7  8  2  0
  8  9  1  0
  1 10  1  0
  9 10  2  0
  2 11  1  0
 11 12  1  0
 12 13  2  0
 12 14  1  0
M  END
$$$$
