1LRH_NLA_D_8190
     RDKit          3D

 14 15  0  0  0  0  0  0  0  0999 V2000
   39.1275   56.3095   79.6781 C   0  0  0  0  0  0  0  0  0  0  0  0
   38.1372   55.7827   78.8493 C   0  0  0  0  0  0  0  0  0  0  0  0
   38.5622   54.8756   77.8894 C   0  0  0  0  0  0  0  0  0  0  0  0
   39.8702   54.4967   77.7366 C   0  0  0  0  0  0  0  0  0  0  0  0
   40.8345   55.0300   78.5674 C   0  0  0  0  0  0  0  0  0  0  0  0
   40.4527   55.9362   79.5356 C   0  0  0  0  0  0  0  0  0  0  0  0
   41.4575   56.4420   80.3428 C   0  0  0  0  0  0  0  0  0  0  0  0
   41.0816   57.3501   81.3140 C   0  0  0  0  0  0  0  0  0  0  0  0
   39.7690   57.7504   81.4907 C   0  0  0  0  0  0  0  0  0  0  0  0
   38.7741   57.2215   80.6588 C   0  0  0  0  0  0  0  0  0  0  0  0
   36.7290   56.1565   78.9748 C   0  0  0  0  0  0  0  0  0  0  0  0
   36.4013   57.2732   78.0535 C   0  0  0  0  0  0  0  0  0  0  0  0
   37.2394   57.7085   77.1934 O   0  0  0  0  0  0  0  0  0  0  0  0
   35.1421   57.8831   78.1104 O   0  0  0  0  0  0  0  0  0  0  0  0
  1  2  2  0
  2  3  1  0
  3  4  2  0
  4  5  1  0
  1  6  1  0
  5  6  2  0
  6  7  1  0
  7  8  2  0
  8  9  1  0
  1 10  1  0
  9 10  2  0
  2 11  1  0
 11 12  1  0
 12 13  2  0
 12 14  1  0
M  END
$$$$
