1LRH_NLA_D_8190
     RDKit          3D

 14 15  0  0  0  0  0  0  0  0999 V2000
   67.2309   42.4273   25.2221 C   0  0  0  0  0  0  0  0  0  0  0  0
   66.4183   41.8098   26.1726 C   0  0  0  0  0  0  0  0  0  0  0  0
   66.2351   42.5007   27.3618 C   0  0  0  0  0  0  0  0  0  0  0  0
   66.8038   43.7203   27.6206 C   0  0  0  0  0  0  0  0  0  0  0  0
   67.6046   44.3139   26.6663 C   0  0  0  0  0  0  0  0  0  0  0  0
   67.8120   43.6590   25.4695 C   0  0  0  0  0  0  0  0  0  0  0  0
   68.6231   44.2961   24.5458 C   0  0  0  0  0  0  0  0  0  0  0  0
   68.8349   43.6452   23.3456 C   0  0  0  0  0  0  0  0  0  0  0  0
   68.2737   42.4138   23.0575 C   0  0  0  0  0  0  0  0  0  0  0  0
   67.4574   41.7934   24.0117 C   0  0  0  0  0  0  0  0  0  0  0  0
   65.7899   40.5098   25.9414 C   0  0  0  0  0  0  0  0  0  0  0  0
   66.5612   39.4312   26.6084 C   0  0  0  0  0  0  0  0  0  0  0  0
   67.4833   39.6837   27.4555 O   0  0  0  0  0  0  0  0  0  0  0  0
   66.2875   38.0894   26.3161 O   0  0  0  0  0  0  0  0  0  0  0  0
  1  2  2  0
  2  3  1  0
  3  4  2  0
  4  5  1  0
  1  6  1  0
  5  6  2  0
  6  7  1  0
  7  8  2  0
  8  9  1  0
  1 10  1  0
  9 10  2  0
  2 11  1  0
 11 12  1  0
 12 13  2  0
 12 14  1  0
M  END
$$$$
