1LRH_NLA_D_8190
     RDKit          3D

 14 15  0  0  0  0  0  0  0  0999 V2000
   65.9697   20.3840   28.7789 C   0  0  0  0  0  0  0  0  0  0  0  0
   65.6488   19.5825   27.6836 C   0  0  0  0  0  0  0  0  0  0  0  0
   65.2932   20.2505   26.5206 C   0  0  0  0  0  0  0  0  0  0  0  0
   65.2494   21.6163   26.4188 C   0  0  0  0  0  0  0  0  0  0  0  0
   65.5708   22.3910   27.5148 C   0  0  0  0  0  0  0  0  0  0  0  0
   65.9299   21.7648   28.6909 C   0  0  0  0  0  0  0  0  0  0  0  0
   66.2427   22.5862   29.7607 C   0  0  0  0  0  0  0  0  0  0  0  0
   66.6028   21.9652   30.9414 C   0  0  0  0  0  0  0  0  0  0  0  0
   66.6554   20.5889   31.0725 C   0  0  0  0  0  0  0  0  0  0  0  0
   66.3335   19.7836   29.9728 C   0  0  0  0  0  0  0  0  0  0  0  0
   65.6815   18.1219   27.7443 C   0  0  0  0  0  0  0  0  0  0  0  0
   64.5389   17.6067   28.5394 C   0  0  0  0  0  0  0  0  0  0  0  0
   63.5067   18.3196   28.7803 O   0  0  0  0  0  0  0  0  0  0  0  0
   64.5710   16.3036   29.0509 O   0  0  0  0  0  0  0  0  0  0  0  0
  1  2  2  0
  2  3  1  0
  3  4  2  0
  4  5  1  0
  1  6  1  0
  5  6  2  0
  6  7  1  0
  7  8  2  0
  8  9  1  0
  1 10  1  0
  9 10  2  0
  2 11  1  0
 11 12  1  0
 12 13  2  0
 12 14  1  0
M  END
$$$$
