1LRH_NLA_D_8190
     RDKit          3D

 14 15  0  0  0  0  0  0  0  0999 V2000
   34.7894   61.2941   56.7527 C   0  0  0  0  0  0  0  0  0  0  0  0
   34.4288   62.4090   55.9962 C   0  0  0  0  0  0  0  0  0  0  0  0
   34.6216   62.3065   54.6260 C   0  0  0  0  0  0  0  0  0  0  0  0
   35.1340   61.1904   54.0181 C   0  0  0  0  0  0  0  0  0  0  0  0
   35.4845   60.0980   54.7852 C   0  0  0  0  0  0  0  0  0  0  0  0
   35.3082   60.1599   56.1524 C   0  0  0  0  0  0  0  0  0  0  0  0
   35.6753   59.0385   56.8769 C   0  0  0  0  0  0  0  0  0  0  0  0
   35.5014   59.0944   58.2464 C   0  0  0  0  0  0  0  0  0  0  0  0
   34.9866   60.2077   58.8866 C   0  0  0  0  0  0  0  0  0  0  0  0
   34.6241   61.3274   58.1273 C   0  0  0  0  0  0  0  0  0  0  0  0
   33.8780   63.6215   56.6001 C   0  0  0  0  0  0  0  0  0  0  0  0
   34.9556   64.4306   57.2224 C   0  0  0  0  0  0  0  0  0  0  0  0
   36.1891   64.1216   57.1012 O   0  0  0  0  0  0  0  0  0  0  0  0
   34.6346   65.5708   57.9691 O   0  0  0  0  0  0  0  0  0  0  0  0
  1  2  2  0
  2  3  1  0
  3  4  2  0
  4  5  1  0
  1  6  1  0
  5  6  2  0
  6  7  1  0
  7  8  2  0
  8  9  1  0
  1 10  1  0
  9 10  2  0
  2 11  1  0
 11 12  1  0
 12 13  2  0
 12 14  1  0
M  END
$$$$
