1LRH_NLA_D_8190
     RDKit          3D

 14 15  0  0  0  0  0  0  0  0999 V2000
   37.1953   59.7783   53.7331 C   0  0  0  0  0  0  0  0  0  0  0  0
   36.5075   60.7366   52.9890 C   0  0  0  0  0  0  0  0  0  0  0  0
   36.1722   61.9051   53.6578 C   0  0  0  0  0  0  0  0  0  0  0  0
   36.4829   62.1373   54.9721 C   0  0  0  0  0  0  0  0  0  0  0  0
   37.1640   61.1758   55.6904 C   0  0  0  0  0  0  0  0  0  0  0  0
   37.5160   59.9990   55.0615 C   0  0  0  0  0  0  0  0  0  0  0  0
   38.1976   59.0668   55.8254 C   0  0  0  0  0  0  0  0  0  0  0  0
   38.5525   57.8863   55.2013 C   0  0  0  0  0  0  0  0  0  0  0  0
   38.2519   57.6251   53.8763 C   0  0  0  0  0  0  0  0  0  0  0  0
   37.5613   58.5873   53.1285 C   0  0  0  0  0  0  0  0  0  0  0  0
   36.1545   60.5338   51.5845 C   0  0  0  0  0  0  0  0  0  0  0  0
   34.7187   60.8345   51.3584 C   0  0  0  0  0  0  0  0  0  0  0  0
   34.0252   61.4959   52.2029 O   0  0  0  0  0  0  0  0  0  0  0  0
   34.0841   60.3901   50.1921 O   0  0  0  0  0  0  0  0  0  0  0  0
  1  2  2  0
  2  3  1  0
  3  4  2  0
  4  5  1  0
  1  6  1  0
  5  6  2  0
  6  7  1  0
  7  8  2  0
  8  9  1  0
  1 10  1  0
  9 10  2  0
  2 11  1  0
 11 12  1  0
 12 13  2  0
 12 14  1  0
M  END
$$$$
