1LRH_NLA_D_8190
     RDKit          3D

 14 15  0  0  0  0  0  0  0  0999 V2000
   56.2173   58.2936   42.5929 C   0  0  0  0  0  0  0  0  0  0  0  0
   55.8244   59.3195   43.4521 C   0  0  0  0  0  0  0  0  0  0  0  0
   56.7171   59.6461   44.4628 C   0  0  0  0  0  0  0  0  0  0  0  0
   57.9226   59.0182   44.6360 C   0  0  0  0  0  0  0  0  0  0  0  0
   58.2923   58.0053   43.7746 C   0  0  0  0  0  0  0  0  0  0  0  0
   57.4321   57.6503   42.7556 C   0  0  0  0  0  0  0  0  0  0  0  0
   57.8491   56.6287   41.9192 C   0  0  0  0  0  0  0  0  0  0  0  0
   56.9919   56.2684   40.8971 C   0  0  0  0  0  0  0  0  0  0  0  0
   55.7693   56.8848   40.6988 C   0  0  0  0  0  0  0  0  0  0  0  0
   55.3743   57.9154   41.5612 C   0  0  0  0  0  0  0  0  0  0  0  0
   54.5482   60.0186   43.3065 C   0  0  0  0  0  0  0  0  0  0  0  0
   54.5918   60.9493   42.1510 C   0  0  0  0  0  0  0  0  0  0  0  0
   55.6803   61.2165   41.5385 O   0  0  0  0  0  0  0  0  0  0  0  0
   53.4171   61.5644   41.7012 O   0  0  0  0  0  0  0  0  0  0  0  0
  1  2  2  0
  2  3  1  0
  3  4  2  0
  4  5  1  0
  1  6  1  0
  5  6  2  0
  6  7  1  0
  7  8  2  0
  8  9  1  0
  1 10  1  0
  9 10  2  0
  2 11  1  0
 11 12  1  0
 12 13  2  0
 12 14  1  0
M  END
$$$$
