
     RDKit          3D

 23 25  0  0  0  0  0  0  0  0999 V2000
   -2.0833    2.6773  -12.2895 C   0  0  0  0  0  0  0  0  0  0  0  0
   -3.2348    1.8785  -12.2372 C   0  0  0  0  0  0  0  0  0  0  0  0
   -4.0485    1.6533  -13.4410 C   0  0  0  0  0  0  0  0  0  0  0  0
   -5.0856    2.5245  -13.8384 C   0  0  0  0  0  0  0  0  0  0  0  0
   -3.5925    1.2957  -11.0130 C   0  0  0  0  0  0  0  0  0  0  0  0
   -3.7961    0.5044  -14.2106 C   0  0  0  0  0  0  0  0  0  0  0  0
    0.5705    2.3004   -9.0506 O   0  0  0  0  0  0  0  0  0  0  0  0
   -6.5245    4.5576  -15.8541 O   0  0  0  0  0  0  0  0  0  0  0  0
   -6.0258    5.5702  -12.4728 N   0  0  0  0  0  0  0  0  0  0  0  0
   -0.7976    2.4824   -8.7127 C   0  0  0  0  0  0  0  0  0  0  0  0
   -5.7044    4.9590  -11.3279 N   0  0  0  0  0  0  0  0  0  0  0  0
   -5.3037    3.7499  -11.6923 N   0  0  0  0  0  0  0  0  0  0  0  0
   -5.7967    2.1750  -14.9823 C   0  0  0  0  0  0  0  0  0  0  0  0
   -7.0723    3.2297  -15.6865 S   0  0  0  0  0  6  0  0  0  0  0  0
   -7.7184    2.5388  -16.7825 O   0  0  0  0  0  0  0  0  0  0  0  0
   -8.2487    3.3076  -14.4795 N   0  0  0  0  0  0  0  0  0  0  0  0
   -5.4204    3.6929  -13.0567 C   0  0  0  0  0  0  0  0  0  0  0  0
   -5.9216    4.8223  -13.5909 N   0  0  0  0  0  0  0  0  0  0  0  0
   -5.5743    1.0507  -15.7245 N   0  0  0  0  0  0  0  0  0  0  0  0
   -4.5755    0.2466  -15.3234 C   0  0  0  0  0  0  0  0  0  0  0  0
   -2.8136    1.4983   -9.8706 C   0  0  0  0  0  0  0  0  0  0  0  0
   -1.6667    2.2983   -9.9271 C   0  0  0  0  0  0  0  0  0  0  0  0
   -1.3045    2.8812  -11.1477 C   0  0  0  0  0  0  0  0  0  0  0  0
  1  2  4  0
  2  3  1  0
  3  4  4  0
  2  5  4  0
  3  6  4  0
  7 10  1  0
  9 11  4  0
 11 12  4  0
  4 13  4  0
  8 14  2  0
 13 14  1  0
 14 15  2  0
 14 16  1  0
  4 17  1  0
 12 17  4  0
 17 18  4  0
  9 18  4  0
 13 19  4  0
 19 20  4  0
  6 20  4  0
  5 21  4  0
 21 22  4  0
 10 22  1  0
  1 23  4  0
 22 23  4  0
M  END
