7LT0_ONJ_A_301
     RDKit          3D

 48 51  0  0  0  0  0  0  0  0999 V2000
  -34.7123  -10.2822  -24.4436 C   0  0  0  0  0  0  0  0  0  0  0  0
  -35.8483  -10.6671  -23.7164 C   0  0  0  0  0  0  0  0  0  0  0  0
  -36.2491  -12.0060  -23.6935 C   0  0  0  0  0  0  0  0  0  0  0  0
  -35.5211  -12.9737  -24.3995 C   0  0  0  0  0  0  0  0  0  0  0  0
  -34.4005  -12.5882  -25.1514 C   0  0  0  0  0  0  0  0  0  0  0  0
  -34.0153  -11.2430  -25.1906 C   0  0  0  0  0  0  0  0  0  0  0  0
  -34.2559   -8.8796  -24.4165 C   0  0  0  0  0  0  0  0  0  0  0  0
  -32.9467   -8.5101  -24.8860 N   0  0  0  0  0  0  0  0  0  0  0  0
  -35.0219   -7.9960  -23.9448 O   0  0  0  0  0  0  0  0  0  0  0  0
  -32.4733   -7.1239  -24.9172 C   0  0  2  0  0  0  0  0  0  0  0  0
  -31.0291   -7.2677  -25.2214 C   0  0  0  0  0  0  0  0  0  0  0  0
  -30.6831   -8.5936  -25.3386 C   0  0  0  0  0  0  0  0  0  0  0  0
  -31.8627   -9.4661  -25.1390 C   0  0  2  0  0  0  0  0  0  0  0  0
  -30.0795   -6.2563  -25.3757 C   0  0  0  0  0  0  0  0  0  0  0  0
  -28.7527   -6.6202  -25.6580 C   0  0  0  0  0  0  0  0  0  0  0  0
  -28.3997   -7.9782  -25.7811 C   0  0  0  0  0  0  0  0  0  0  0  0
  -29.3717   -8.9789  -25.6213 C   0  0  0  0  0  0  0  0  0  0  0  0
  -33.4271  -13.8107  -26.0367 S   0  0  0  0  0  0  0  0  0  0  0  0
  -31.9052  -13.2925  -25.2409 C   0  0  0  0  0  0  0  0  0  0  0  0
  -35.9074  -14.3126  -24.3577 O   0  0  0  0  0  0  0  0  0  0  0  0
  -31.1170  -14.2218  -24.5554 C   0  0  0  0  0  0  0  0  0  0  0  0
  -29.9436  -13.8154  -23.8962 C   0  0  0  0  0  0  0  0  0  0  0  0
  -29.5739  -12.4479  -23.9143 C   0  0  0  0  0  0  0  0  0  0  0  0
  -30.3654  -11.5294  -24.6254 C   0  0  0  0  0  0  0  0  0  0  0  0
  -31.5195  -11.9509  -25.2864 C   0  0  0  0  0  0  0  0  0  0  0  0
  -28.3337  -11.9617  -23.2120 C   0  0  2  0  0  0  0  0  0  0  0  0
  -29.1265  -14.8379  -23.1508 C   0  0  1  0  0  0  0  0  0  0  0  0
  -36.4082   -9.9359  -23.1458 H   0  0  0  0  0  0  0  0  0  0  0  0
  -37.1185  -12.2927  -23.1155 H   0  0  0  0  0  0  0  0  0  0  0  0
  -33.1652  -10.9510  -25.7943 H   0  0  0  0  0  0  0  0  0  0  0  0
  -32.6111   -6.6400  -23.9266 H   0  0  0  0  0  0  0  0  0  0  0  0
  -32.9914   -6.5569  -25.7195 H   0  0  0  0  0  0  0  0  0  0  0  0
  -32.0544  -10.0491  -26.0609 H   0  0  0  0  0  0  0  0  0  0  0  0
  -31.7135  -10.1307  -24.2613 H   0  0  0  0  0  0  0  0  0  0  0  0
  -30.3582   -5.2151  -25.2786 H   0  0  0  0  0  0  0  0  0  0  0  0
  -27.9986   -5.8539  -25.7811 H   0  0  0  0  0  0  0  0  0  0  0  0
  -27.3759   -8.2523  -25.9995 H   0  0  0  0  0  0  0  0  0  0  0  0
  -29.1095  -10.0250  -25.7159 H   0  0  0  0  0  0  0  0  0  0  0  0
  -35.9882  -14.8135  -23.4805 H   0  0  0  0  0  0  0  0  0  0  0  0
  -31.4269  -15.2595  -24.5288 H   0  0  0  0  0  0  0  0  0  0  0  0
  -30.0934  -10.4820  -24.6649 H   0  0  0  0  0  0  0  0  0  0  0  0
  -32.1226  -11.2289  -25.8223 H   0  0  0  0  0  0  0  0  0  0  0  0
  -28.6003  -11.5097  -22.2336 H   0  0  0  0  0  0  0  0  0  0  0  0
  -27.8043  -11.1871  -23.8074 H   0  0  0  0  0  0  0  0  0  0  0  0
  -27.6398  -12.8127  -23.0485 H   0  0  0  0  0  0  0  0  0  0  0  0
  -28.9337  -15.7385  -23.7724 H   0  0  0  0  0  0  0  0  0  0  0  0
  -28.1430  -14.4090  -22.8663 H   0  0  0  0  0  0  0  0  0  0  0  0
  -29.6691  -15.1543  -22.2356 H   0  0  0  0  0  0  0  0  0  0  0  0
  1  2  2  0
  2  3  1  0
  3  4  2  0
  4  5  1  0
  1  6  1  0
  5  6  2  0
  1  7  1  0
  7  8  1  0
  7  9  2  0
  8 10  1  0
 10 11  1  0
 11 12  2  0
  8 13  1  0
 12 13  1  0
 11 14  1  0
 14 15  2  0
 15 16  1  0
 16 17  2  0
 12 17  1  0
  5 18  1  0
 18 19  1  0
  4 20  1  0
 19 21  2  0
 21 22  1  0
 22 23  2  0
 23 24  1  0
 24 25  2  0
 19 25  1  0
 23 26  1  0
 22 27  1  0
  2 28  1  0
  3 29  1  0
  6 30  1  0
 10 31  1  1
 10 32  1  0
 13 33  1  6
 13 34  1  0
 14 35  1  0
 15 36  1  0
 16 37  1  0
 17 38  1  0
 20 39  1  0
 21 40  1  0
 24 41  1  0
 25 42  1  0
 26 43  1  1
 26 44  1  0
 26 45  1  0
 27 46  1  6
 27 47  1  0
 27 48  1  0
M  END
