7P5T_5YG_A_402
     RDKit          3D

 23 25  0  0  0  0  0  0  0  0999 V2000
   -8.9604   -4.9589   -2.6236 C   0  0  0  0  0  0  0  0  0  0  0  0
   -8.2687   -1.9803   -0.5576 C   0  0  0  0  0  0  0  0  0  0  0  0
   -8.9933   -0.9026   -0.0615 C   0  0  0  0  0  0  0  0  0  0  0  0
  -10.3168   -0.7098   -0.3270 C   0  0  0  0  0  0  0  0  0  0  0  0
  -11.1625    0.4019    0.1311 C   0  0  0  0  0  0  0  0  0  0  0  0
  -13.3167    1.6529   -0.4224 C   0  0  0  0  0  0  0  0  0  0  0  0
  -15.3164    2.7377   -1.2809 C   0  0  0  0  0  0  0  0  0  0  0  0
  -16.3814    4.6276   -0.0892 C   0  0  0  0  0  0  0  0  0  0  0  0
  -16.8527    4.8094    1.3140 C   0  0  0  0  0  0  0  0  0  0  0  0
  -16.4177    3.8909    2.2668 C   0  0  0  0  0  0  0  0  0  0  0  0
  -16.8109    3.9889    3.5978 C   0  0  0  0  0  0  0  0  0  0  0  0
  -18.0569    5.9017    3.0197 C   0  0  0  0  0  0  0  0  0  0  0  0
  -17.6903    5.8397    1.6904 C   0  0  0  0  0  0  0  0  0  0  0  0
  -13.3833    2.5340    0.6123 C   0  0  0  0  0  0  0  0  0  0  0  0
  -10.9321   -1.6679   -1.1404 C   0  0  0  0  0  0  0  0  0  0  0  0
   -8.8856   -2.9193   -1.3592 C   0  0  0  0  0  0  0  0  0  0  0  0
  -14.3339    1.7830   -1.3892 C   0  0  0  0  0  0  0  0  0  0  0  0
  -15.3360    3.6050   -0.2124 C   0  0  0  0  0  0  0  0  0  0  0  0
  -14.3591    3.5079    0.7516 C   0  0  0  0  0  0  0  0  0  0  0  0
  -10.2394   -2.7474   -1.6466 C   0  0  0  0  0  0  0  0  0  0  0  0
  -12.3432    0.6621   -0.6197 N   0  0  0  0  0  0  0  0  0  0  0  0
  -17.6314    5.0073    3.9393 N   0  0  0  0  0  0  0  0  0  0  0  0
   -8.2189   -4.0181   -1.8863 O   0  0  0  0  0  0  0  0  0  0  0  0
  2  3  2  0
  3  4  1  0
  4  5  1  0
  8  9  1  0
  9 10  2  0
 10 11  1  0
 12 13  2  0
  9 13  1  0
  6 14  2  0
  4 15  2  0
  2 16  1  0
  7 17  2  0
  6 17  1  0
  8 18  1  0
  7 18  1  0
 18 19  2  0
 14 19  1  0
 15 20  1  0
 16 20  2  0
  6 21  1  0
  5 21  1  0
 11 22  2  0
 12 22  1  0
 16 23  1  0
  1 23  1  0
M  END
$$$$
