7LT0_ONJ_A_301
     RDKit          3D

 27 30  0  0  0  0  0  0  0  0999 V2000
  -32.3944  -10.6535  -24.8326 C   0  0  0  0  0  0  0  0  0  0  0  0
  -33.5972  -10.4130  -24.1811 C   0  0  0  0  0  0  0  0  0  0  0  0
  -33.6763  -10.4803  -22.7902 C   0  0  0  0  0  0  0  0  0  0  0  0
  -32.5031  -10.7781  -22.0831 C   0  0  0  0  0  0  0  0  0  0  0  0
  -31.3232  -11.0059  -22.7387 C   0  0  0  0  0  0  0  0  0  0  0  0
  -31.2222  -10.9373  -24.1170 C   0  0  0  0  0  0  0  0  0  0  0  0
  -32.3537  -10.5560  -26.3610 C   0  0  0  0  0  0  0  0  0  0  0  0
  -31.8669   -9.3052  -26.8810 N   0  0  0  0  0  0  0  0  0  0  0  0
  -32.7039  -11.4113  -27.1019 O   0  0  0  0  0  0  0  0  0  0  0  0
  -31.5562   -8.9806  -28.1392 C   0  0  0  0  0  0  0  0  0  0  0  0
  -31.4986   -7.4680  -28.4643 C   0  0  0  0  0  0  0  0  0  0  0  0
  -31.5770   -6.8785  -27.0171 C   0  0  0  0  0  0  0  0  0  0  0  0
  -31.6498   -8.1888  -26.2011 C   0  0  0  0  0  0  0  0  0  0  0  0
  -31.3885   -6.4656  -29.5245 C   0  0  0  0  0  0  0  0  0  0  0  0
  -31.3713   -5.2215  -29.3340 C   0  0  0  0  0  0  0  0  0  0  0  0
  -31.4280   -4.6294  -28.1904 C   0  0  0  0  0  0  0  0  0  0  0  0
  -31.5252   -5.2447  -26.9319 C   0  0  0  0  0  0  0  0  0  0  0  0
  -29.8907  -11.3899  -21.6759 S   0  0  0  0  0  0  0  0  0  0  0  0
  -28.4647  -11.8360  -22.6771 C   0  0  0  0  0  0  0  0  0  0  0  0
  -32.4833  -10.8592  -20.7008 O   0  0  0  0  0  0  0  0  0  0  0  0
  -27.8293  -13.0335  -22.3763 C   0  0  0  0  0  0  0  0  0  0  0  0
  -26.7162  -13.3814  -23.1282 C   0  0  0  0  0  0  0  0  0  0  0  0
  -26.2720  -12.5459  -24.1374 C   0  0  0  0  0  0  0  0  0  0  0  0
  -26.9201  -11.3457  -24.4282 C   0  0  0  0  0  0  0  0  0  0  0  0
  -28.0382  -10.9844  -23.6825 C   0  0  0  0  0  0  0  0  0  0  0  0
  -25.0359  -12.9662  -24.9480 C   0  0  0  0  0  0  0  0  0  0  0  0
  -25.9660  -14.6878  -22.8474 C   0  0  0  0  0  0  0  0  0  0  0  0
  1  2  2  0
  2  3  1  0
  3  4  2  0
  4  5  1  0
  1  6  1  0
  5  6  2  0
  1  7  1  0
  7  8  1  0
  7  9  2  0
  8 10  1  0
 10 11  1  0
 11 12  2  0
  8 13  1  0
 12 13  1  0
 11 14  1  0
 14 15  2  0
 15 16  1  0
 16 17  2  0
 12 17  1  0
  5 18  1  0
 18 19  1  0
  4 20  1  0
 19 21  2  0
 21 22  1  0
 22 23  2  0
 23 24  1  0
 24 25  2  0
 19 25  1  0
 23 26  1  0
 22 27  1  0
M  END
