
     RDKit          3D

 13 13  0  0  0  0  0  0  0  0999 V2000
  -13.6656   -7.0893   21.6400 C   0  0  0  0  0  0  0  0  0  0  0  0
  -15.2410   -5.8190   20.4536 C   0  0  0  0  0  0  0  0  0  0  0  0
  -17.6043   -5.4150   20.5047 C   0  0  0  0  0  0  0  0  0  0  0  0
  -18.7311   -4.8832   19.6542 C   0  0  0  0  0  0  0  0  0  0  0  0
  -11.1615   -8.1888   22.3238 N   0  0  0  0  0  0  0  0  0  0  0  0
  -14.1138   -5.1665   20.6064 N   0  0  0  0  0  0  0  0  0  0  0  0
  -13.1790   -5.9121   21.3066 N   0  0  0  0  0  0  0  0  0  0  0  0
  -16.4043   -5.4531   19.8338 N   0  0  0  0  0  0  0  0  0  0  0  0
  -13.1791   -9.6027   21.9073 O   0  0  0  0  0  0  0  0  0  0  0  0
  -13.0699   -8.0937   23.9340 O   0  0  0  0  0  0  0  0  0  0  0  0
  -17.8045   -5.7403   21.6689 O   0  0  0  0  0  0  0  0  0  0  0  0
  -12.8250   -8.3468   22.5312 S   0  0  0  0  0  6  0  0  0  0  0  0
  -15.2725   -7.3842   21.1397 S   0  0  0  0  0  0  0  0  0  0  0  0
  3  4  1  0
  2  6  4  0
  1  7  4  0
  6  7  4  0
  2  8  1  0
  3  8  1  0
  3 11  2  0
  1 12  1  0
  5 12  1  0
  9 12  2  0
 10 12  2  0
  1 13  4  0
  2 13  4  0
M  END
