7MY1_IPE_AAA_401
     RDKit          3D

 14 13  0  0  0  0  0  0  0  0999 V2000
    4.1225   11.9752   14.7860 C   0  0  0  0  0  0  0  0  0  0  0  0
    4.7370   12.3135   15.9907 O   0  0  0  0  0  0  0  0  0  0  0  0
    4.7233   10.6957   14.2620 C   0  0  0  0  0  0  0  0  0  0  0  0
    4.1206   10.2834   12.9724 C   0  0  0  0  0  0  0  0  0  0  0  0
    4.0461    8.9900   12.6239 C   0  0  0  0  0  0  0  0  0  0  0  0
    3.5967   11.3177   12.0636 C   0  0  0  0  0  0  0  0  0  0  0  0
    4.1010   13.7945   16.4666 P   0  0  1  0  0  5  0  0  0  0  0  0
    2.6278   13.6608   16.8279 O   0  0  0  0  0  0  0  0  0  0  0  0
    4.9028   14.4363   17.8100 O   0  0  0  0  0  0  0  0  0  0  0  0
    4.2080   14.9433   15.2106 O   0  0  0  0  0  0  0  0  0  0  0  0
    4.3251   16.4492   15.9739 P   0  0  2  0  0  5  0  0  0  0  0  0
    5.5517   16.4109   17.1116 O   0  0  0  0  0  0  0  0  0  0  0  0
    3.0289   16.8468   16.6288 O   0  0  0  0  0  0  0  0  0  0  0  0
    4.7796   17.5642   14.7642 O   0  0  0  0  0  0  0  0  0  0  0  0
  1  2  1  1
  1  3  1  0
  3  4  1  1
  4  5  2  0
  6  4  1  1
  7  2  1  0
  7  8  2  0
  7  9  1  1
  7 10  1  0
 10 11  1  0
 11 12  1  1
 11 13  2  0
 11 14  1  0
M  END
$$$$
