7K41_VUA_A_2602
     RDKit          3D

 46 48  0  0  0  0  0  0  0  0999 V2000
   -3.3714    0.2773    2.2006 N   0  0  0  0  0  0  0  0  0  0  0  0
   -3.8609   -3.2699    0.0385 N   0  0  0  0  0  0  0  0  0  0  0  0
   -1.0651   -2.8692   -1.4754 C   0  0  0  0  0  0  0  0  0  0  0  0
   -2.1731   -0.7435   -1.1075 C   0  0  0  0  0  0  0  0  0  0  0  0
   -4.6694   -1.6662    1.7384 C   0  0  0  0  0  0  0  0  0  0  0  0
   -4.4731   -0.4784    2.4403 C   0  0  0  0  0  0  0  0  0  0  0  0
   -1.1490   -1.6492   -0.7834 C   0  0  0  0  0  0  0  0  0  0  0  0
   -2.4476   -0.1027    1.2785 C   0  0  0  0  0  0  0  0  0  0  0  0
   -4.9854   -3.4463   -0.8908 C   0  0  0  0  0  0  0  0  0  0  0  0
   -3.3111   -4.9895   -2.1151 C   0  0  1  0  0  0  0  0  0  0  0  0
   -0.1235   -1.2941    0.2620 C   0  0  0  0  0  0  0  0  0  0  0  0
   -3.0239   -2.2820   -2.7737 C   0  0  0  0  0  0  0  0  0  0  0  0
   -1.9984   -3.1813   -2.4683 C   0  0  0  0  0  0  0  0  0  0  0  0
   -3.1119   -1.0653   -2.0921 C   0  0  0  0  0  0  0  0  0  0  0  0
   -3.7061   -2.0587    0.7996 C   0  0  0  0  0  0  0  0  0  0  0  0
   -4.4971   -3.9942   -2.2418 C   0  0  0  0  0  0  0  0  0  0  0  0
   -3.1737   -5.5470   -0.6864 C   0  0  0  0  0  0  0  0  0  0  0  0
   -2.9587   -4.3981    0.3082 C   0  0  0  0  0  0  0  0  0  0  0  0
   -3.4360   -6.1305   -3.1304 C   0  0  0  0  0  0  0  0  0  0  0  0
   -0.0461    0.2192    0.4872 C   0  0  0  0  0  0  0  0  0  0  0  0
   -2.6260   -1.2598    0.5847 N   0  0  0  0  0  0  0  0  0  0  0  0
   -1.3020    0.7255    1.0412 N   0  0  0  0  0  0  0  0  0  0  0  0
   -0.2724   -3.5730   -1.2527 H   0  0  0  0  0  0  0  0  0  0  0  0
   -2.2449    0.2089   -0.5979 H   0  0  0  0  0  0  0  0  0  0  0  0
   -5.5635   -2.2515    1.9085 H   0  0  0  0  0  0  0  0  0  0  0  0
   -5.2021   -0.1509    3.1690 H   0  0  0  0  0  0  0  0  0  0  0  0
   -5.7033   -4.1679   -0.4426 H   0  0  0  0  0  0  0  0  0  0  0  0
   -5.5442   -2.5003   -1.0512 H   0  0  0  0  0  0  0  0  0  0  0  0
   -2.3718   -4.4394   -2.3515 H   0  0  0  0  0  0  0  0  0  0  0  0
    0.8771   -1.6799   -0.0334 H   0  0  0  0  0  0  0  0  0  0  0  0
   -0.3864   -1.7873    1.2234 H   0  0  0  0  0  0  0  0  0  0  0  0
   -3.7453   -2.5248   -3.5432 H   0  0  0  0  0  0  0  0  0  0  0  0
   -1.9262   -4.1202   -3.0017 H   0  0  0  0  0  0  0  0  0  0  0  0
   -3.9007   -0.3651   -2.3361 H   0  0  0  0  0  0  0  0  0  0  0  0
   -5.3653   -4.4706   -2.7485 H   0  0  0  0  0  0  0  0  0  0  0  0
   -4.1786   -3.1414   -2.8804 H   0  0  0  0  0  0  0  0  0  0  0  0
   -2.3086   -6.2436   -0.6264 H   0  0  0  0  0  0  0  0  0  0  0  0
   -4.0907   -6.1126   -0.4094 H   0  0  0  0  0  0  0  0  0  0  0  0
   -1.9103   -4.0441    0.2131 H   0  0  0  0  0  0  0  0  0  0  0  0
   -3.1132   -4.7691    1.3447 H   0  0  0  0  0  0  0  0  0  0  0  0
   -2.5335   -6.7773   -3.0924 H   0  0  0  0  0  0  0  0  0  0  0  0
   -3.5244   -5.7171   -4.1579 H   0  0  0  0  0  0  0  0  0  0  0  0
   -4.3317   -6.7522   -2.9140 H   0  0  0  0  0  0  0  0  0  0  0  0
    0.8157    0.4700    1.1433 H   0  0  0  0  0  0  0  0  0  0  0  0
    0.1336    0.7150   -0.4906 H   0  0  0  0  0  0  0  0  0  0  0  0
   -1.4083    1.7599    1.1480 H   0  0  0  0  0  0  0  0  0  0  0  0
  5  6  4  0
  1  6  4  0
  4  7  4  0
  3  7  4  0
  1  8  4  0
  2  9  1  0
  7 11  1  0
 12 13  4  0
  3 13  4  0
  4 14  4  0
 12 14  4  0
  2 15  1  0
  5 15  4  0
 10 16  1  0
  9 16  1  0
 10 17  1  0
 17 18  1  0
  2 18  1  0
 10 19  1  0
 11 20  1  0
 15 21  4  0
  8 21  4  0
 20 22  1  0
  8 22  1  0
  3 23  1  0
  4 24  1  0
  5 25  1  0
  6 26  1  0
  9 27  1  0
  9 28  1  0
 10 29  1  6
 11 30  1  0
 11 31  1  0
 12 32  1  0
 13 33  1  0
 14 34  1  0
 16 35  1  0
 16 36  1  0
 17 37  1  0
 17 38  1  0
 18 39  1  0
 18 40  1  0
 19 41  1  0
 19 42  1  0
 19 43  1  0
 20 44  1  0
 20 45  1  0
 22 46  1  0
M  END
