1PMN_984_A_501
     RDKit          3D

 63 67  0  0  0  0  0  0  0  0999 V2000
   -1.1067    6.5783    3.7066 N   0  0  0  0  0  4  0  0  0  0  0  0
   -1.9625    5.6717    3.1632 C   0  0  0  0  0  0  0  0  0  0  0  0
   -1.3369    4.5414    2.7727 N   0  0  0  0  0  0  0  0  0  0  0  0
   -0.0401    4.7429    3.0659 C   0  0  0  0  0  0  0  0  0  0  0  0
    0.1155    5.9960    3.6385 C   0  0  0  0  0  0  0  0  0  0  0  0
   -1.4531    7.8664    4.3225 C   0  0  0  0  0  0  0  0  0  0  0  0
   -2.9559    7.9319    4.6244 C   0  0  0  0  0  0  0  0  0  0  0  0
   -3.2385    7.6082    6.0878 C   0  0  0  0  0  0  0  0  0  0  0  0
   -3.4672    5.8462    3.0488 C   0  0  1  0  0  0  0  0  0  0  0  0
   -3.8638    7.3284    2.9022 C   0  0  0  0  0  0  0  0  0  0  0  0
   -3.6765    7.8506    1.4716 C   0  0  0  0  0  0  0  0  0  0  0  0
   -4.4034    6.9983    0.5120 N   0  0  0  0  0  0  0  0  0  0  0  0
   -3.8627    5.6261    0.5301 C   0  0  0  0  0  0  0  0  0  0  0  0
   -4.0599    4.9897    1.9123 C   0  0  0  0  0  0  0  0  0  0  0  0
   -4.2922    7.5619   -0.8421 C   0  0  0  0  0  0  0  0  0  0  0  0
    1.0022    3.7197    2.8415 C   0  0  0  0  0  0  0  0  0  0  0  0
    1.3569    6.4927    4.2754 C   0  0  0  0  0  0  0  0  0  0  0  0
    1.8182    3.3112    3.9079 C   0  0  0  0  0  0  0  0  0  0  0  0
    2.8342    2.3697    3.7048 C   0  0  0  0  0  0  0  0  0  0  0  0
    3.0286    1.8150    2.4286 C   0  0  0  0  0  0  0  0  0  0  0  0
    2.1991    2.2008    1.3705 C   0  0  0  0  0  0  0  0  0  0  0  0
    1.1883    3.1432    1.5746 C   0  0  0  0  0  0  0  0  0  0  0  0
    3.8534    1.9114    5.0622 Cl  0  0  0  0  0  0  0  0  0  0  0  0
    4.3009    0.6390    2.1285 Cl  0  0  0  0  0  0  0  0  0  0  0  0
    2.2424    7.3509    3.6126 C   0  0  0  0  0  0  0  0  0  0  0  0
    3.4069    7.7476    4.2707 C   0  0  0  0  0  0  0  0  0  0  0  0
    3.6787    7.2779    5.5159 N   0  0  0  0  0  0  0  0  0  0  0  0
    2.8264    6.4224    6.1392 C   0  0  0  0  0  0  0  0  0  0  0  0
    1.6787    6.0446    5.5176 N   0  0  0  0  0  0  0  0  0  0  0  0
    3.1516    5.9025    7.4317 N   0  0  0  0  0  0  0  0  0  0  0  0
    3.0295    6.7259    8.6322 C   0  0  2  0  0  0  0  0  0  0  0  0
    1.5916    6.9414    9.0732 C   0  0  0  0  0  0  0  0  0  0  0  0
    2.3574    8.0664    8.3940 C   0  0  0  0  0  0  0  0  0  0  0  0
   -0.8675    8.0089    5.2557 H   0  0  0  0  0  0  0  0  0  0  0  0
   -1.1612    8.7054    3.6584 H   0  0  0  0  0  0  0  0  0  0  0  0
   -3.3468    8.9450    4.3957 H   0  0  0  0  0  0  0  0  0  0  0  0
   -3.5060    7.2100    3.9855 H   0  0  0  0  0  0  0  0  0  0  0  0
   -2.7343    8.3444    6.7496 H   0  0  0  0  0  0  0  0  0  0  0  0
   -4.3321    7.6544    6.2742 H   0  0  0  0  0  0  0  0  0  0  0  0
   -2.8783    6.5862    6.3326 H   0  0  0  0  0  0  0  0  0  0  0  0
   -3.9429    5.4910    3.9834 H   0  0  0  0  0  0  0  0  0  0  0  0
   -4.9362    7.4402    3.1760 H   0  0  0  0  0  0  0  0  0  0  0  0
   -3.2761    7.9545    3.6088 H   0  0  0  0  0  0  0  0  0  0  0  0
   -4.0823    8.8860    1.4359 H   0  0  0  0  0  0  0  0  0  0  0  0
   -2.5952    7.9098    1.2170 H   0  0  0  0  0  0  0  0  0  0  0  0
   -2.7869    5.6145    0.2461 H   0  0  0  0  0  0  0  0  0  0  0  0
   -4.4069    4.9989   -0.2105 H   0  0  0  0  0  0  0  0  0  0  0  0
   -3.6098    3.9726    1.9241 H   0  0  0  0  0  0  0  0  0  0  0  0
   -5.1521    4.8696    2.0874 H   0  0  0  0  0  0  0  0  0  0  0  0
   -4.7203    8.5871   -0.8668 H   0  0  0  0  0  0  0  0  0  0  0  0
   -4.8754    6.9468   -1.5610 H   0  0  0  0  0  0  0  0  0  0  0  0
   -3.2315    7.6038   -1.1774 H   0  0  0  0  0  0  0  0  0  0  0  0
    1.6818    3.7431    4.8923 H   0  0  0  0  0  0  0  0  0  0  0  0
    2.3382    1.7716    0.3863 H   0  0  0  0  0  0  0  0  0  0  0  0
    0.5507    3.4194    0.7440 H   0  0  0  0  0  0  0  0  0  0  0  0
    2.0538    7.6920    2.6058 H   0  0  0  0  0  0  0  0  0  0  0  0
    4.1039    8.4168    3.7841 H   0  0  0  0  0  0  0  0  0  0  0  0
    3.3151    4.8759    7.5386 H   0  0  0  0  0  0  0  0  0  0  0  0
    3.7970    6.6428    9.4310 H   0  0  0  0  0  0  0  0  0  0  0  0
    0.8151    6.4711    8.4321 H   0  0  0  0  0  0  0  0  0  0  0  0
    1.4662    7.0721   10.1690 H   0  0  0  0  0  0  0  0  0  0  0  0
    2.6851    8.8713    9.0851 H   0  0  0  0  0  0  0  0  0  0  0  0
    2.0363    8.2656    7.3490 H   0  0  0  0  0  0  0  0  0  0  0  0
  1  2  4  0
  2  3  4  0
  3  4  4  0
  1  5  4  0
  4  5  4  0
  1  6  1  0
  6  7  1  0
  7  8  1  0
  2  9  1  0
  9 10  1  0
 10 11  1  0
 11 12  1  0
 12 13  1  0
  9 14  1  0
 13 14  1  0
 12 15  1  0
  4 16  1  0
  5 17  1  0
 16 18  4  0
 18 19  4  0
 19 20  4  0
 20 21  4  0
 16 22  4  0
 21 22  4  0
 19 23  1  0
 20 24  1  0
 17 25  4  0
 25 26  4  0
 26 27  4  0
 27 28  4  0
 17 29  4  0
 28 29  4  0
 28 30  1  0
 30 31  1  0
 31 32  1  0
 31 33  1  0
 32 33  1  0
  6 34  1  0
  6 35  1  0
  7 36  1  0
  7 37  1  0
  8 38  1  0
  8 39  1  0
  8 40  1  0
  9 41  1  6
 10 42  1  0
 10 43  1  0
 11 44  1  0
 11 45  1  0
 13 46  1  0
 13 47  1  0
 14 48  1  0
 14 49  1  0
 15 50  1  0
 15 51  1  0
 15 52  1  0
 18 53  1  0
 21 54  1  0
 22 55  1  0
 25 56  1  0
 26 57  1  0
 30 58  1  0
 31 59  1  6
 32 60  1  0
 32 61  1  0
 33 62  1  0
 33 63  1  0
M  CHG  1   1   1
M  END
