8FLV_ZB9_A_701
     RDKit          3D

 51 54  0  0  0  0  0  0  0  0999 V2000
  -16.5076    8.1038  -18.2723 N   0  0  0  0  0  0  0  0  0  0  0  0
  -17.0834    4.6044  -20.1992 N   0  0  0  0  0  0  0  0  0  0  0  0
  -17.0062    5.7605  -19.5249 C   0  0  0  0  0  0  0  0  0  0  0  0
  -14.9752    5.4172  -20.3126 C   0  0  0  0  0  0  0  0  0  0  0  0
  -15.8387    4.3892  -20.6849 C   0  0  0  0  0  0  0  0  0  0  0  0
  -13.7412    8.7997  -20.1024 C   0  0  2  0  0  0  0  0  0  0  0  0
  -13.2129    7.8814  -17.7870 C   0  0  1  0  0  0  0  0  0  0  0  0
  -12.6045    5.6003  -16.7254 C   0  0  2  0  0  0  0  0  0  0  0  0
  -15.9341    6.9168  -15.3991 C   0  0  0  0  0  0  0  0  0  0  0  0
  -14.8577    6.7110  -11.7314 C   0  0  0  0  0  0  0  0  0  0  0  0
  -15.6294    7.6359   -9.6165 C   0  0  0  0  0  0  0  0  0  0  0  0
  -13.9163    5.9333  -11.0293 C   0  0  0  0  0  0  0  0  0  0  0  0
  -17.7668    7.5642  -18.2503 C   0  0  0  0  0  0  0  0  0  0  0  0
  -14.0663    5.5042  -16.2797 C   0  0  2  0  0  0  0  0  0  0  0  0
  -13.8837    8.0403  -16.4018 C   0  0  1  0  0  0  0  0  0  0  0  0
  -16.0659    7.2415  -13.9349 C   0  0  1  0  0  0  0  0  0  0  0  0
  -15.7160    7.5565  -11.0104 C   0  0  0  0  0  0  0  0  0  0  0  0
  -14.6859    6.8668   -8.9297 C   0  0  0  0  0  0  0  0  0  0  0  0
  -13.8308    6.0153   -9.6351 C   0  0  0  0  0  0  0  0  0  0  0  0
  -15.4743    7.4809  -18.9130 C   0  0  0  0  0  0  0  0  0  0  0  0
  -15.7484    6.2815  -19.5662 C   0  0  0  0  0  0  0  0  0  0  0  0
  -12.4538    6.5334  -17.9337 C   0  0  2  0  0  0  0  0  0  0  0  0
  -18.0235    6.3788  -18.8784 N   0  0  0  0  0  0  0  0  0  0  0  0
  -14.1614    8.0640  -18.9088 N   0  0  0  0  0  0  0  0  0  0  0  0
  -14.6502    6.8339  -16.0510 N   0  0  0  0  0  0  0  0  0  0  0  0
  -14.9607    6.6649  -13.1676 N   0  0  0  0  0  0  0  0  0  0  0  0
  -16.9835    6.7016  -16.0646 O   0  0  0  0  0  0  0  0  0  0  0  0
  -12.6499    5.0477   -8.7712 Cl  0  0  0  0  0  0  0  0  0  0  0  0
  -16.7024    8.7040   -8.7306 Cl  0  0  0  0  0  0  0  0  0  0  0  0
  -17.9250    4.0003  -20.3286 H   0  0  0  0  0  0  0  0  0  0  0  0
  -13.9303    5.5122  -20.5695 H   0  0  0  0  0  0  0  0  0  0  0  0
  -15.5665    3.5315  -21.2857 H   0  0  0  0  0  0  0  0  0  0  0  0
  -14.4940    9.5794  -20.3439 H   0  0  0  0  0  0  0  0  0  0  0  0
  -13.6472    8.1048  -20.9632 H   0  0  0  0  0  0  0  0  0  0  0  0
  -12.7586    9.2934  -19.9448 H   0  0  0  0  0  0  0  0  0  0  0  0
  -12.4600    8.6998  -17.8465 H   0  0  0  0  0  0  0  0  0  0  0  0
  -12.2285    4.5877  -16.9874 H   0  0  0  0  0  0  0  0  0  0  0  0
  -11.9876    5.9823  -15.8826 H   0  0  0  0  0  0  0  0  0  0  0  0
  -13.2511    5.2603  -11.5519 H   0  0  0  0  0  0  0  0  0  0  0  0
  -18.5618    8.0788  -17.7287 H   0  0  0  0  0  0  0  0  0  0  0  0
  -14.1087    4.9132  -15.3387 H   0  0  0  0  0  0  0  0  0  0  0  0
  -14.6567    4.9700  -17.0545 H   0  0  0  0  0  0  0  0  0  0  0  0
  -13.1002    8.2021  -15.6298 H   0  0  0  0  0  0  0  0  0  0  0  0
  -14.5224    8.9470  -16.4063 H   0  0  0  0  0  0  0  0  0  0  0  0
  -16.0733    8.3447  -13.8091 H   0  0  0  0  0  0  0  0  0  0  0  0
  -17.0306    6.8611  -13.5358 H   0  0  0  0  0  0  0  0  0  0  0  0
  -16.4463    8.1610  -11.5343 H   0  0  0  0  0  0  0  0  0  0  0  0
  -14.6182    6.9293   -7.8509 H   0  0  0  0  0  0  0  0  0  0  0  0
  -11.3710    6.7353  -18.0858 H   0  0  0  0  0  0  0  0  0  0  0  0
  -12.7965    5.9910  -18.8388 H   0  0  0  0  0  0  0  0  0  0  0  0
  -14.2347    6.1352  -13.7020 H   0  0  0  0  0  0  0  0  0  0  0  0
  2  3  1  0
  2  5  1  0
  4  5  2  0
 10 12  2  0
  1 13  2  0
  8 14  1  0
  7 15  1  0
  9 16  1  0
 10 17  1  0
 11 17  2  0
 11 18  1  0
 12 19  1  0
 18 19  2  0
  1 20  1  0
 20 21  2  0
  3 21  1  0
  4 21  1  0
  7 22  1  0
  8 22  1  0
 13 23  1  0
  3 23  2  0
  6 24  1  0
 20 24  1  0
  7 24  1  0
 15 25  1  0
 14 25  1  0
  9 25  1  0
 16 26  1  0
 10 26  1  0
  9 27  2  0
 19 28  1  0
 11 29  1  0
  2 30  1  0
  4 31  1  0
  5 32  1  0
  6 33  1  6
  6 34  1  0
  6 35  1  0
  7 36  1  6
  8 37  1  6
  8 38  1  0
 12 39  1  0
 13 40  1  0
 14 41  1  1
 14 42  1  0
 15 43  1  1
 15 44  1  0
 16 45  1  6
 16 46  1  0
 17 47  1  0
 18 48  1  0
 22 49  1  6
 22 50  1  0
 26 51  1  0
M  END
