8BOM_QU6_A_1001
     RDKit          3D

 35 39  0  0  0  0  0  0  0  0999 V2000
  -75.9283  -18.2771   82.3300 N   0  0  0  0  0  0  0  0  0  0  0  0
  -76.3603  -19.5834   88.4728 N   0  0  0  0  0  0  0  0  0  0  0  0
  -73.0617  -18.1916   84.6208 C   0  0  0  0  0  0  0  0  0  0  0  0
  -72.7625  -18.6755   85.9631 C   0  0  0  0  0  0  0  0  0  0  0  0
  -73.4546  -19.5993   88.1842 C   0  0  0  0  0  0  0  0  0  0  0  0
  -72.1691  -19.4327   88.6665 C   0  0  0  0  0  0  0  0  0  0  0  0
  -71.7951  -19.9042   89.9289 C   0  0  0  0  0  0  0  0  0  0  0  0
  -72.7290  -20.5491   90.7092 C   0  0  0  0  0  0  0  0  0  0  0  0
  -74.3003  -18.4184   84.0643 C   0  0  0  0  0  0  0  0  0  0  0  0
  -77.0610  -18.4833   83.1195 C   0  0  0  0  0  0  0  0  0  0  0  0
  -77.8750  -19.1498   86.6623 C   0  0  0  0  0  0  0  0  0  0  0  0
  -77.3823  -19.6206   89.3511 C   0  0  0  0  0  0  0  0  0  0  0  0
  -76.5949  -19.3547   87.1630 C   0  0  0  0  0  0  0  0  0  0  0  0
  -79.4710  -18.6540   83.3704 C   0  0  0  0  0  0  0  0  0  0  0  0
  -78.8336  -18.2575   81.3124 C   0  0  0  0  0  0  0  0  0  0  0  0
  -73.7356  -19.0848   86.8865 N   0  0  0  0  0  0  0  0  0  0  0  0
  -74.0038  -16.8358   80.6923 C   0  0  0  0  0  0  0  0  0  0  0  0
  -70.4829  -19.6838   90.3139 O   0  0  0  0  0  0  0  0  0  0  0  0
  -73.6817  -17.2992   82.0442 C   0  0  0  0  0  0  0  0  0  0  0  0
  -74.0043  -20.7029   90.2065 C   0  0  0  0  0  0  0  0  0  0  0  0
  -74.3919  -20.2448   88.9637 C   0  0  0  0  0  0  0  0  0  0  0  0
  -74.6295  -17.9787   82.7739 C   0  0  0  0  0  0  0  0  0  0  0  0
  -78.0453  -18.9080   85.2316 C   0  0  0  0  0  0  0  0  0  0  0  0
  -78.9383  -19.1827   87.5392 C   0  0  0  0  0  0  0  0  0  0  0  0
  -78.6608  -19.4202   88.8776 C   0  0  0  0  0  0  0  0  0  0  0  0
  -72.4291  -17.0673   82.6022 C   0  0  0  0  0  0  0  0  0  0  0  0
  -78.3457  -18.4567   82.5874 C   0  0  0  0  0  0  0  0  0  0  0  0
  -81.9532  -18.7382   83.1042 C   0  0  0  0  0  0  0  0  0  0  0  0
  -72.1261  -17.5086   83.8732 C   0  0  0  0  0  0  0  0  0  0  0  0
  -69.4581  -19.3610   89.4240 C   0  0  0  0  0  0  0  0  0  0  0  0
  -76.9758  -18.7124   84.4417 N   0  0  0  0  0  0  0  0  0  0  0  0
  -79.2814  -18.8789   84.6999 N   0  0  0  0  0  0  0  0  0  0  0  0
  -80.1897  -18.3375   81.3619 N   0  0  0  0  0  0  0  0  0  0  0  0
  -80.5815  -18.5771   82.6037 N   0  0  0  0  0  0  0  0  0  0  0  0
  -71.5516  -18.7325   86.3260 O   0  0  0  0  0  0  0  0  0  0  0  0
  3  4  1  0
  5  6  2  0
  6  7  1  0
  7  8  2  0
  3  9  2  0
  1 10  1  0
  2 12  2  0
 11 13  2  0
  2 13  1  0
  4 16  1  0
  5 16  1  0
  7 18  1  0
 17 19  1  0
  8 20  1  0
  5 21  1  0
 20 21  2  0
  1 22  1  0
 19 22  2  0
  9 22  1  0
 11 23  1  0
 11 24  1  0
 24 25  2  0
 12 25  1  0
 19 26  1  0
 15 27  1  0
 14 27  2  0
 10 27  1  0
 26 29  2  0
  3 29  1  0
 18 30  1  0
 10 31  2  0
 23 31  1  0
 14 32  1  0
 23 32  2  0
 15 33  2  0
 33 34  1  0
 28 34  1  0
 14 34  1  0
  4 35  2  0
M  END
$$$$
