6Z0R_Q4H_A_301
     RDKit          3D

 13 13  0  0  0  0  0  0  0  0999 V2000
   34.4791   17.4525   56.7808 N   0  0  0  0  0  0  0  0  0  0  0  0
   34.6731   16.4703   56.2534 C   0  0  0  0  0  0  0  0  0  0  0  0
   34.9329   15.1567   55.5619 C   0  0  0  0  0  0  0  0  0  0  0  0
   35.7942   14.2504   56.1516 C   0  0  0  0  0  0  0  0  0  0  0  0
   36.0344   13.0864   55.5376 N   0  0  0  0  0  0  0  0  0  0  0  0
   35.4592   12.7779   54.3704 C   0  0  0  0  0  0  0  0  0  0  0  0
   34.6231   13.6457   53.7825 N   0  0  0  0  0  0  0  0  0  0  0  0
   34.3378   14.8268   54.3440 C   0  0  0  0  0  0  0  0  0  0  0  0
   33.4362   15.6957   53.6860 N   0  0  0  0  0  0  0  0  0  0  0  0
   36.2458   14.4689   57.0535 H   0  0  0  0  0  0  0  0  0  0  0  0
   35.6591   11.8704   53.9213 H   0  0  0  0  0  0  0  0  0  0  0  0
   33.0347   15.4301   52.8271 H   0  0  0  0  0  0  0  0  0  0  0  0
   33.2101   16.5659   54.0870 H   0  0  0  0  0  0  0  0  0  0  0  0
  1  2  3  0
  2  3  1  0
  3  4  4  0
  4  5  4  0
  5  6  4  0
  6  7  4  0
  7  8  4  0
  3  8  4  0
  8  9  1  0
  4 10  1  0
  6 11  1  0
  9 12  1  0
  9 13  1  0
M  END
