7UF2_5SP_A_301
     RDKit          3D

 14 13  0  0  0  0  0  0  0  0999 V2000
   -1.0331   -3.2845    4.5939 O   0  0  0  0  0  0  0  0  0  0  0  0
   -2.2924   -2.8685    4.9602 C   0  0  0  0  0  0  0  0  0  0  0  0
   -2.8278   -3.6676    6.1187 C   0  0  0  0  0  0  0  0  0  0  0  0
   -2.1007   -4.4793    6.6806 O   0  0  0  0  0  0  0  0  0  0  0  0
   -4.2037   -3.5025    6.5986 C   0  0  2  0  0  0  0  0  0  0  0  0
   -4.3690   -3.6987    8.0772 C   0  0  1  0  0  0  0  0  0  0  0  0
   -5.7553   -3.5079    8.5975 C   0  0  0  0  0  0  0  0  0  0  0  0
   -5.8185   -3.9918    9.9022 O   0  0  0  0  0  0  0  0  0  0  0  0
   -7.3431   -3.7357   10.6027 P   0  0  2  0  0  0  0  0  0  0  0  0
   -8.3614   -4.5063    9.7935 O   0  0  0  0  0  0  0  0  0  0  0  0
   -7.7240   -2.0724   10.5942 O   0  0  0  0  0  0  0  0  0  0  0  0
   -7.3948   -4.3392   12.1860 O   0  0  0  0  0  0  0  0  0  0  0  0
   -4.9992   -4.4713    5.9871 O   0  0  0  0  0  0  0  0  0  0  0  0
   -4.0514   -5.0570    8.3159 O   0  0  0  0  0  0  0  0  0  0  0  0
  1  2  1  0
  2  3  1  0
  3  4  2  0
  3  5  1  0
  5  6  1  0
  6  7  1  0
  7  8  1  0
  8  9  1  0
  9 10  2  0
  9 11  1  1
  9 12  1  0
  5 13  1  6
  6 14  1  6
M  END
$$$$
