7ROR_69X_B_401
     RDKit          3D

 58 61  0  0  0  0  0  0  0  0999 V2000
    0.1431   -1.8378   44.7292 C   0  0  1  0  0  0  0  0  0  0  0  0
    1.0414   -1.5460   43.5049 C   0  0  1  0  0  0  0  0  0  0  0  0
    0.4160   -2.0390   42.2227 C   0  0  0  0  0  0  0  0  0  0  0  0
   -0.9158   -1.7180   41.9168 C   0  0  0  0  0  0  0  0  0  0  0  0
   -1.5320   -2.2677   40.7890 C   0  0  0  0  0  0  0  0  0  0  0  0
   -0.8275   -3.1436   39.9580 C   0  0  0  0  0  0  0  0  0  0  0  0
    0.5056   -3.4576   40.2507 C   0  0  0  0  0  0  0  0  0  0  0  0
    1.1240   -2.9096   41.3777 C   0  0  0  0  0  0  0  0  0  0  0  0
    0.8454   -1.4891   46.0140 C   0  0  0  0  0  0  0  0  0  0  0  0
    3.8646   -2.8455   47.5518 C   0  0  1  0  0  0  0  0  0  0  0  0
    4.4236   -4.0360   48.3405 C   0  0  2  0  0  0  0  0  0  0  0  0
    6.0267   -3.8703   49.9621 C   0  0  2  0  0  0  0  0  0  0  0  0
    4.7025   -3.6367   50.6725 C   0  0  1  0  0  0  0  0  0  0  0  0
    3.7053   -4.2016   49.6895 C   0  0  2  0  0  0  0  0  0  0  0  0
    6.8728   -1.8990   51.2944 C   0  0  0  0  0  0  0  0  0  0  0  0
    8.7652   -1.5342   50.4267 C   0  0  0  0  0  0  0  0  0  0  0  0
   10.0174   -1.0774   50.0343 C   0  0  0  0  0  0  0  0  0  0  0  0
   10.0523   -2.8082   48.3911 C   0  0  0  0  0  0  0  0  0  0  0  0
    8.2086   -2.5967   49.8024 C   0  0  0  0  0  0  0  0  0  0  0  0
   -1.1302   -1.1220   44.6296 N   0  0  0  0  0  0  0  0  0  0  0  0
    7.0119   -2.8575   50.3432 N   0  0  0  0  0  0  0  0  0  0  0  0
    7.9432   -1.0630   51.3810 N   0  0  0  0  0  0  0  0  0  0  0  0
   10.6461    0.0344   50.6705 N   0  0  0  0  0  0  0  0  0  0  0  0
   10.6397   -1.7361   49.0123 N   0  0  0  0  0  0  0  0  0  0  0  0
    8.8208   -3.2499   48.7856 N   0  0  0  0  0  0  0  0  0  0  0  0
   -1.4610   -3.7008   38.8505 O   0  0  0  0  0  0  0  0  0  0  0  0
    0.2038   -1.4015   47.0962 O   0  0  0  0  0  0  0  0  0  0  0  0
    2.2084   -1.1950   45.9671 O   0  0  0  0  0  0  0  0  0  0  0  0
    4.1413   -1.2956   43.9566 O   0  0  0  0  0  0  0  0  0  0  0  0
    2.6414   -3.3602   44.5228 O   0  0  0  0  0  0  0  0  0  0  0  0
    4.4833   -2.7926   46.2893 O   0  0  0  0  0  0  0  0  0  0  0  0
    5.8062   -3.8392   48.5691 O   0  0  0  0  0  0  0  0  0  0  0  0
    4.6532   -4.3011   51.9086 O   0  0  0  0  0  0  0  0  0  0  0  0
    3.4094   -5.5564   49.9490 O   0  0  0  0  0  0  0  0  0  0  0  0
    3.3551   -2.1903   45.1612 P   0  0  2  0  0  5  0  0  0  0  0  0
   -0.0784   -2.9283   44.7549 H   0  0  0  0  0  0  0  0  0  0  0  0
    1.2025   -0.4494   43.4244 H   0  0  0  0  0  0  0  0  0  0  0  0
    2.0421   -2.0112   43.6494 H   0  0  0  0  0  0  0  0  0  0  0  0
   -1.4827   -1.0625   42.5655 H   0  0  0  0  0  0  0  0  0  0  0  0
   -2.5641   -2.0260   40.5717 H   0  0  0  0  0  0  0  0  0  0  0  0
    1.0571   -4.1389   39.6167 H   0  0  0  0  0  0  0  0  0  0  0  0
    2.1445   -3.1876   41.6072 H   0  0  0  0  0  0  0  0  0  0  0  0
    2.7650   -2.9903   47.4508 H   0  0  0  0  0  0  0  0  0  0  0  0
    4.0677   -1.9107   48.1201 H   0  0  0  0  0  0  0  0  0  0  0  0
    4.2919   -4.9503   47.7196 H   0  0  0  0  0  0  0  0  0  0  0  0
    6.4211   -4.8784   50.2228 H   0  0  0  0  0  0  0  0  0  0  0  0
    4.5074   -2.5447   50.7996 H   0  0  0  0  0  0  0  0  0  0  0  0
    2.7532   -3.6257   49.7363 H   0  0  0  0  0  0  0  0  0  0  0  0
    5.9957   -1.8008   51.9200 H   0  0  0  0  0  0  0  0  0  0  0  0
   10.5688   -3.3095   47.5845 H   0  0  0  0  0  0  0  0  0  0  0  0
   -1.6043   -1.1211   45.5630 H   0  0  0  0  0  0  0  0  0  0  0  0
   -0.9326   -0.1255   44.3845 H   0  0  0  0  0  0  0  0  0  0  0  0
   10.7993    0.9220   50.1434 H   0  0  0  0  0  0  0  0  0  0  0  0
   10.9584   -0.0234   51.6642 H   0  0  0  0  0  0  0  0  0  0  0  0
   -0.9654   -3.8609   37.9810 H   0  0  0  0  0  0  0  0  0  0  0  0
    3.7888   -0.3753   44.0500 H   0  0  0  0  0  0  0  0  0  0  0  0
    5.4735   -4.8540   51.9616 H   0  0  0  0  0  0  0  0  0  0  0  0
    2.4530   -5.7145   49.7310 H   0  0  0  0  0  0  0  0  0  0  0  0
  1  2  1  0
  2  3  1  0
  3  4  2  0
  4  5  1  0
  5  6  2  0
  6  7  1  0
  7  8  2  0
  3  8  1  0
  1  9  1  0
 11 10  1  0
 12 13  1  0
 11 14  1  0
 13 14  1  0
 16 17  2  0
 16 19  1  0
  1 20  1  0
 12 21  1  0
 15 21  1  0
 19 21  1  0
 15 22  2  0
 16 22  1  0
 17 23  1  0
 18 24  2  0
 17 24  1  0
 19 25  2  0
 18 25  1  0
  6 26  1  0
  9 27  2  0
  9 28  1  0
 10 31  1  0
 11 32  1  0
 12 32  1  0
 13 33  1  0
 14 34  1  0
 35 28  1  1
 30 35  2  0
 35 29  1  0
 31 35  1  0
  1 36  1  1
  2 37  1  6
  2 38  1  0
  4 39  1  0
  5 40  1  0
  7 41  1  0
  8 42  1  0
 10 43  1  6
 10 44  1  0
 11 45  1  6
 12 46  1  1
 13 47  1  1
 14 48  1  6
 15 49  1  0
 18 50  1  0
 20 51  1  0
 20 52  1  0
 23 53  1  0
 23 54  1  0
 26 55  1  0
 29 56  1  0
 33 57  1  0
 34 58  1  0
M  END
