6TW5_9M2_CCC_501
     RDKit          3D

 31 34  0  0  0  0  0  0  0  0999 V2000
   21.3381   57.7955   55.5183 C   0  0  0  0  0  0  0  0  0  0  0  0
   21.6341   53.0598   55.5303 C   0  0  0  0  0  0  0  0  0  0  0  0
   21.0875   51.7957   55.4077 C   0  0  0  0  0  0  0  0  0  0  0  0
   21.5865   55.4380   55.0509 C   0  0  0  0  0  0  0  0  0  0  0  0
   20.7972   56.5213   55.3689 C   0  0  0  0  0  0  0  0  0  0  0  0
   20.9748   54.0966   54.9003 C   0  0  0  0  0  0  0  0  0  0  0  0
   19.8160   53.9186   54.1696 C   0  0  0  0  0  0  0  0  0  0  0  0
   20.6524   49.6670   55.5253 N   0  0  0  0  0  0  0  0  0  0  0  0
   19.3012   52.6209   54.0741 C   0  0  0  0  0  0  0  0  0  0  0  0
   19.9331   51.5662   54.6894 C   0  0  0  0  0  0  0  0  0  0  0  0
   23.2574   59.1652   55.4766 F   0  0  0  0  0  0  0  0  0  0  0  0
   22.6944   57.9275   55.3353 C   0  0  0  0  0  0  0  0  0  0  0  0
   23.4725   56.8368   55.0176 C   0  0  0  0  0  0  0  0  0  0  0  0
   22.9731   55.5673   54.8623 C   0  0  0  0  0  0  0  0  0  0  0  0
   19.7131   50.2401   54.7965 N   0  0  0  0  0  0  0  0  0  0  0  0
   21.5476   50.6004   55.9385 C   0  0  0  0  0  0  0  0  0  0  0  0
   22.7496   50.4049   56.7697 C   0  0  0  0  0  0  0  0  0  0  0  0
   22.9560   49.0287   57.1639 N   0  0  0  0  0  0  0  0  0  0  0  0
   23.9380   49.0308   58.2388 C   0  0  0  0  0  0  0  0  0  0  0  0
   21.7299   48.4064   57.6057 C   0  0  0  0  0  0  0  0  0  0  0  0
   23.6609   54.4459   54.5533 O   0  0  0  0  0  0  0  0  0  0  0  0
   24.9595   54.2060   54.1728 C   0  0  0  0  0  0  0  0  0  0  0  0
   25.2336   52.9109   53.4918 C   0  0  0  0  0  0  0  0  0  0  0  0
   24.6472   52.9584   52.1192 C   0  0  0  0  0  0  0  0  0  0  0  0
   25.1246   53.7074   51.0714 C   0  0  0  0  0  0  0  0  0  0  0  0
   26.2611   54.6313   50.9875 C   0  0  0  0  0  0  0  0  0  0  0  0
   24.3038   53.4483   50.0223 N   0  0  0  0  0  0  0  0  0  0  0  0
   23.3623   52.5929   50.3674 N   0  0  0  0  0  0  0  0  0  0  0  0
   22.2759   52.0340   49.5761 C   0  0  0  0  0  0  0  0  0  0  0  0
   23.5451   52.2686   51.6595 C   0  0  0  0  0  0  0  0  0  0  0  0
   22.7195   51.3258   52.4967 C   0  0  0  0  0  0  0  0  0  0  0  0
  2  3  1  0
  1  5  2  0
  4  5  1  0
  4  6  1  0
  2  6  2  0
  6  7  1  0
  7  9  2  0
  3 10  1  0
  9 10  1  0
 11 12  1  0
  1 12  1  0
 12 13  2  0
 13 14  1  0
  4 14  2  0
 10 15  2  0
  8 15  1  0
  3 16  2  0
  8 16  1  0
 16 17  1  0
 17 18  1  0
 18 19  1  0
 18 20  1  0
 14 21  1  0
 21 22  1  0
 22 23  1  0
 23 24  1  0
 24 25  1  0
 25 26  1  0
 25 27  2  0
 27 28  1  0
 28 29  1  0
 24 30  2  0
 28 30  1  0
 30 31  1  0
M  END
$$$$
