
     RDKit          3D

 10 10  0  0  0  0  0  0  0  0999 V2000
   22.6537   -1.9182   72.4079 C   0  0  0  0  0  0  0  0  0  0  0  0
   23.3788   -1.1974   71.2482 C   0  0  0  0  0  0  0  0  0  0  0  0
   22.4000   -0.8278   70.1300 C   0  0  1  0  0  0  0  0  0  0  0  0
   21.0129   -0.5558   70.7039 C   0  0  2  0  0  0  0  0  0  0  0  0
   20.4998   -1.8097   71.4268 C   0  0  0  0  0  0  0  0  0  0  0  0
   23.5665   -2.8195   73.0192 O   0  0  0  0  0  0  0  0  0  0  0  0
   24.4093   -2.0221   70.6697 O   0  0  0  0  0  0  0  0  0  0  0  0
   22.8621    0.3362   69.4258 O   0  0  0  0  0  0  0  0  0  0  0  0
   20.1096   -0.1635   69.6707 O   0  0  0  0  0  0  0  0  0  0  0  0
   21.5430   -2.6577   71.9309 O   0  0  0  0  0  0  0  0  0  0  0  0
  1  2  1  0
  2  3  1  0
  3  4  1  0
  4  5  1  0
  1  6  1  0
  2  7  1  0
  3  8  1  1
  4  9  1  6
  1 10  1  0
  5 10  1  0
M  END
