
     RDKit          3D

 25 26  0  0  0  0  0  0  0  0999 V2000
   16.0529   22.2951   42.7707 C   0  0  0  0  0  0  0  0  0  0  0  0
   17.3111   22.4934   42.3229 O   0  0  0  0  0  0  0  0  0  0  0  0
   15.1024   22.6908   42.1115 O   0  0  0  0  0  0  0  0  0  0  0  0
   15.9886   21.5743   44.1328 C   0  0  0  0  0  0  0  0  0  0  0  0
   14.9194   22.3132   44.9645 C   0  0  0  0  0  0  0  0  0  0  0  0
   17.3146   21.7021   44.8971 C   0  0  0  0  0  0  0  0  0  0  0  0
   15.5578   20.2115   44.1152 O   0  0  0  0  0  0  0  0  0  0  0  0
   16.2684   19.2279   43.4938 C   0  0  0  0  0  0  0  0  0  0  0  0
   16.7584   19.2374   42.1892 C   0  0  0  0  0  0  0  0  0  0  0  0
   17.4912   18.1474   41.6992 C   0  0  0  0  0  0  0  0  0  0  0  0
   17.7450   17.0325   42.5087 C   0  0  0  0  0  0  0  0  0  0  0  0
   16.5254   18.1160   44.3026 C   0  0  0  0  0  0  0  0  0  0  0  0
   17.2476   17.0235   43.8164 C   0  0  0  0  0  0  0  0  0  0  0  0
   18.5114   15.8476   41.9786 C   0  0  0  0  0  0  0  0  0  0  0  0
   17.6468   14.9356   41.1189 C   0  0  0  0  0  0  0  0  0  0  0  0
   16.4898   15.2457   40.8423 O   0  0  0  0  0  0  0  0  0  0  0  0
   18.3175   13.7898   40.7150 N   0  0  0  0  0  0  0  0  0  0  0  0
   17.7805   12.6573   40.0670 C   0  0  0  0  0  0  0  0  0  0  0  0
   16.4460   12.2596   40.1611 C   0  0  0  0  0  0  0  0  0  0  0  0
   15.9859   11.1186   39.4858 C   0  0  0  0  0  0  0  0  0  0  0  0
   16.8759   10.3809   38.6985 C   0  0  0  0  0  0  0  0  0  0  0  0
   18.6594   11.8987   39.2832 C   0  0  0  0  0  0  0  0  0  0  0  0
   18.2207   10.7531   38.6042 C   0  0  0  0  0  0  0  0  0  0  0  0
   14.5392   10.7230   39.5570 C   0  0  0  0  0  0  0  0  0  0  0  0
   19.1704    9.9741   37.7404 C   0  0  0  0  0  0  0  0  0  0  0  0
  1  2  1  0
  1  3  2  0
  1  4  1  0
  4  5  1  0
  4  6  1  0
  4  7  1  0
  7  8  1  0
  8  9  4  0
  9 10  4  0
 10 11  4  0
  8 12  4  0
 11 13  4  0
 12 13  4  0
 11 14  1  0
 14 15  1  0
 15 16  2  0
 15 17  1  0
 17 18  1  0
 18 19  4  0
 19 20  4  0
 20 21  4  0
 18 22  4  0
 21 23  4  0
 22 23  4  0
 20 24  1  0
 23 25  1  0
M  END
