1G9V_RQ3_A_801
     RDKit          3D

 48 49  0  0  0  0  0  0  0  0999 V2000
   24.3303   19.6084   50.2683 C   0  0  0  0  0  0  0  0  0  0  0  0
   23.2779   19.3068   49.6493 O   0  0  0  0  0  0  0  0  0  0  0  0
   25.2974   20.1735   49.7044 O   0  0  0  0  0  0  0  0  0  0  0  0
   24.4333   19.2481   51.7227 C   0  0  2  0  0  0  0  0  0  0  0  0
   25.7138   18.4367   51.9185 C   0  0  0  0  0  0  0  0  0  0  0  0
   23.2256   18.3847   52.1542 C   0  0  0  0  0  0  0  0  0  0  0  0
   24.5401   20.4712   52.4974 O   0  0  0  0  0  0  0  0  0  0  0  0
   25.6471   21.4635   52.4222 C   0  0  0  0  0  0  0  0  0  0  0  0
   26.0899   22.0434   53.6084 C   0  0  0  0  0  0  0  0  0  0  0  0
   27.1245   22.9551   53.5950 C   0  0  0  0  0  0  0  0  0  0  0  0
   27.7350   23.3040   52.4087 C   0  0  0  0  0  0  0  0  0  0  0  0
   26.2600   21.8141   51.2151 C   0  0  0  0  0  0  0  0  0  0  0  0
   27.3105   22.7419   51.2154 C   0  0  0  0  0  0  0  0  0  0  0  0
   28.8181   24.2389   52.4252 C   0  0  0  0  0  0  0  0  0  0  0  0
   29.4093   24.5283   51.0321 C   0  0  0  0  0  0  0  0  0  0  0  0
   30.3385   23.8476   50.6001 O   0  0  0  0  0  0  0  0  0  0  0  0
   29.0788   25.6887   50.4797 N   0  0  0  0  0  0  0  0  0  0  0  0
   29.8311   26.3911   49.5599 C   0  0  0  0  0  0  0  0  0  0  0  0
   31.2343   26.3431   49.5996 C   0  0  0  0  0  0  0  0  0  0  0  0
   31.9767   27.2103   48.8149 C   0  0  0  0  0  0  0  0  0  0  0  0
   31.3254   28.1221   47.9944 C   0  0  0  0  0  0  0  0  0  0  0  0
   29.1972   27.3037   48.7312 C   0  0  0  0  0  0  0  0  0  0  0  0
   29.9324   28.1610   47.9566 C   0  0  0  0  0  0  0  0  0  0  0  0
   33.4719   27.1594   48.8472 C   0  0  0  0  0  0  0  0  0  0  0  0
   29.2246   29.1348   47.0642 C   0  0  0  0  0  0  0  0  0  0  0  0
   22.5735   18.8849   50.1007 H   0  0  0  0  0  0  0  0  0  0  0  0
   25.6516   17.5303   51.3533 H   0  0  0  0  0  0  0  0  0  0  0  0
   25.8327   18.2028   52.9558 H   0  0  0  0  0  0  0  0  0  0  0  0
   26.5534   19.0091   51.5834 H   0  0  0  0  0  0  0  0  0  0  0  0
   23.1895   17.4979   51.5567 H   0  0  0  0  0  0  0  0  0  0  0  0
   22.3224   18.9424   52.0197 H   0  0  0  0  0  0  0  0  0  0  0  0
   23.3291   18.1164   53.1849 H   0  0  0  0  0  0  0  0  0  0  0  0
   25.6412   21.7895   54.5024 H   0  0  0  0  0  0  0  0  0  0  0  0
   27.4445   23.3795   54.4796 H   0  0  0  0  0  0  0  0  0  0  0  0
   25.9406   21.3921   50.3292 H   0  0  0  0  0  0  0  0  0  0  0  0
   27.7670   23.0060   50.3284 H   0  0  0  0  0  0  0  0  0  0  0  0
   29.5950   23.8446   53.0464 H   0  0  0  0  0  0  0  0  0  0  0  0
   28.4270   25.1631   52.7965 H   0  0  0  0  0  0  0  0  0  0  0  0
   28.2190   26.0845   50.7504 H   0  0  0  0  0  0  0  0  0  0  0  0
   31.7112   25.6632   50.2121 H   0  0  0  0  0  0  0  0  0  0  0  0
   31.8743   28.7727   47.4109 H   0  0  0  0  0  0  0  0  0  0  0  0
   28.1663   27.3373   48.6978 H   0  0  0  0  0  0  0  0  0  0  0  0
   33.7881   26.4006   49.5322 H   0  0  0  0  0  0  0  0  0  0  0  0
   33.8543   28.1073   49.1636 H   0  0  0  0  0  0  0  0  0  0  0  0
   33.8423   26.9338   47.8691 H   0  0  0  0  0  0  0  0  0  0  0  0
   29.9452   29.7225   46.5349 H   0  0  0  0  0  0  0  0  0  0  0  0
   28.6063   29.7768   47.6562 H   0  0  0  0  0  0  0  0  0  0  0  0
   28.6167   28.6004   46.3642 H   0  0  0  0  0  0  0  0  0  0  0  0
  1  2  1  0
  1  3  2  0
  1  4  1  0
  4  5  1  0
  4  6  1  0
  4  7  1  1
  7  8  1  0
  8  9  2  0
  9 10  1  0
 10 11  2  0
  8 12  1  0
 11 13  1  0
 12 13  2  0
 11 14  1  0
 14 15  1  0
 15 16  2  0
 15 17  1  0
 17 18  1  0
 18 19  2  0
 19 20  1  0
 20 21  2  0
 18 22  1  0
 21 23  1  0
 22 23  2  0
 20 24  1  0
 23 25  1  0
  2 26  1  0
  5 27  1  0
  5 28  1  0
  5 29  1  0
  6 30  1  0
  6 31  1  0
  6 32  1  0
  9 33  1  0
 10 34  1  0
 12 35  1  0
 13 36  1  0
 14 37  1  0
 14 38  1  0
 17 39  1  0
 19 40  1  0
 21 41  1  0
 22 42  1  0
 24 43  1  0
 24 44  1  0
 24 45  1  0
 25 46  1  0
 25 47  1  0
 25 48  1  0
M  END
