@<TRIPOS>MOLECULE
1G9V_RQ3_A_801
 48 49 0 0 0
SMALL
GASTEIGER

@<TRIPOS>ATOM
      1 C          -0.7298    3.8192    4.1618 C.2     1  UNL1        0.3485
      2 O          -1.4852    2.8510    4.8196 O.3     1  UNL1       -0.4779
      3 O          -0.3955    4.8675    4.7789 O.2     1  UNL1       -0.2465
      4 C          -0.2683    3.5837    2.7403 C.3     1  UNL1        0.2003
      5 C           1.2218    3.1912    2.8043 C.3     1  UNL1       -0.0145
      6 C          -0.4932    4.8806    1.9325 C.3     1  UNL1       -0.0145
      7 O          -1.0709    2.5101    2.2169 O.3     1  UNL1       -0.4751
      8 C          -1.0704    1.8973    0.9471 C.ar    1  UNL1        0.1221
      9 C          -0.1744    2.2138   -0.0952 C.ar    1  UNL1       -0.0196
     10 C          -0.2494    1.5449   -1.3213 C.ar    1  UNL1       -0.0547
     11 C          -1.2252    0.5608   -1.5375 C.ar    1  UNL1       -0.0384
     12 C          -2.0324    0.9019    0.7254 C.ar    1  UNL1       -0.0196
     13 C          -2.1109    0.2366   -0.5011 C.ar    1  UNL1       -0.0547
     14 C          -1.2777   -0.1849   -2.8422 C.3     1  UNL1        0.0494
     15 C          -0.4824   -1.4493   -2.7357 C.2     1  UNL1        0.2215
     16 O           0.7397   -1.4391   -3.0398 O.2     1  UNL1       -0.2751
     17 N          -1.1099   -2.6576   -2.2759 N.am    1  UNL1       -0.2852
     18 C          -0.3787   -3.8191   -1.8521 C.ar    1  UNL1        0.0339
     19 C           0.8029   -3.6972   -1.0995 C.ar    1  UNL1       -0.0375
     20 C           1.4978   -4.8403   -0.6782 C.ar    1  UNL1       -0.0484
     21 C           0.9844   -6.1112   -0.9775 C.ar    1  UNL1       -0.0558
     22 C          -0.8821   -5.0938   -2.1423 C.ar    1  UNL1       -0.0375
     23 C          -0.2101   -6.2428   -1.7014 C.ar    1  UNL1       -0.0484
     24 C           2.7362   -4.7037    0.1580 C.3     1  UNL1       -0.0396
     25 C          -0.7347   -7.6031   -2.0569 C.3     1  UNL1       -0.0396
     26 H          -1.7840    2.9866    5.7775 H       1  UNL1        0.2952
     27 H           1.6998    3.1449    1.8103 H       1  UNL1        0.0273
     28 H           1.7968    3.9389    3.3929 H       1  UNL1        0.0273
     29 H           1.3344    2.1989    3.2935 H       1  UNL1        0.0273
     30 H          -1.5720    5.1512    1.9435 H       1  UNL1        0.0273
     31 H          -0.1808    4.7867    0.8773 H       1  UNL1        0.0273
     32 H           0.0868    5.7222    2.3699 H       1  UNL1        0.0273
     33 H           0.5890    2.9620    0.0044 H       1  UNL1        0.0654
     34 H           0.4564    1.7950   -2.1042 H       1  UNL1        0.0622
     35 H          -2.7262    0.6404    1.5143 H       1  UNL1        0.0654
     36 H          -2.8591   -0.5345   -0.6412 H       1  UNL1        0.0622
     37 H          -2.3327   -0.4210   -3.1058 H       1  UNL1        0.0407
     38 H          -0.8731    0.4442   -3.6663 H       1  UNL1        0.0407
     39 H          -2.1530   -2.7199   -2.3181 H       1  UNL1        0.1548
     40 H           1.1724   -2.7148   -0.8237 H       1  UNL1        0.0639
     41 H           1.5095   -6.9977   -0.6396 H       1  UNL1        0.0623
     42 H          -1.7964   -5.1888   -2.7159 H       1  UNL1        0.0639
     43 H           3.2940   -3.7840   -0.1162 H       1  UNL1        0.0278
     44 H           3.4117   -5.5736    0.0064 H       1  UNL1        0.0278
     45 H           2.4523   -4.6481    1.2294 H       1  UNL1        0.0278
     46 H          -0.3378   -7.9038   -3.0507 H       1  UNL1        0.0278
     47 H          -1.8457   -7.5964   -2.0968 H       1  UNL1        0.0278
     48 H          -0.4251   -8.3558   -1.3009 H       1  UNL1        0.0278
@<TRIPOS>BOND
     1     1     2    1
     2     1     3    2
     3     1     4    1
     4     4     5    1
     5     4     6    1
     6     4     7    1
     7     7     8    1
     8     8     9   ar
     9     9    10   ar
    10    10    11   ar
    11     8    12   ar
    12    11    13   ar
    13    12    13   ar
    14    11    14    1
    15    14    15    1
    16    15    16    2
    17    15    17   am
    18    17    18    1
    19    18    19   ar
    20    19    20   ar
    21    20    21   ar
    22    18    22   ar
    23    21    23   ar
    24    22    23   ar
    25    20    24    1
    26    23    25    1
    27     2    26    1
    28     5    27    1
    29     5    28    1
    30     5    29    1
    31     6    30    1
    32     6    31    1
    33     6    32    1
    34     9    33    1
    35    10    34    1
    36    12    35    1
    37    13    36    1
    38    14    37    1
    39    14    38    1
    40    17    39    1
    41    19    40    1
    42    21    41    1
    43    22    42    1
    44    24    43    1
    45    24    44    1
    46    24    45    1
    47    25    46    1
    48    25    47    1
    49    25    48    1
