@<TRIPOS>MOLECULE
1HWW_SWA_A_1103
 27 28 0 0 0
SMALL
GASTEIGER

@<TRIPOS>ATOM
      1 C          31.0850   66.8500    6.1040 C.3     1  UNL1        0.0733
      2 O          31.6160   67.9930    5.4120 O.3     1  UNL1       -0.3902
      3 C          31.2910   67.0030    7.6490 C.3     1  UNL1        0.0649
      4 N          30.7310   65.8070    8.3070 N.3     1  UNL1       -0.2921
      5 C          29.2560   65.6700    8.1360 C.3     1  UNL1       -0.0005
      6 C          28.9520   65.4970    6.6230 C.3     1  UNL1       -0.0378
      7 C          29.5540   66.6860    5.8180 C.3     1  UNL1       -0.0241
      8 C          31.2840   65.7130    9.6520 C.3     1  UNL1        0.0279
      9 C          32.6480   66.4480    9.5970 C.3     1  UNL1        0.0952
     10 O          33.7150   65.5340    9.8330 O.3     1  UNL1       -0.3879
     11 C          32.7550   67.0820    8.1610 C.3     1  UNL1        0.1001
     12 O          33.6410   66.3140    7.3190 O.3     1  UNL1       -0.3875
     13 H          31.6078   65.9860    5.7503 H       1  UNL1        0.0610
     14 H          31.1595   68.7941    5.7132 H       1  UNL1        0.2098
     15 H          30.8211   67.9365    7.8785 H       1  UNL1        0.0514
     16 H          28.7664   66.5470    8.5050 H       1  UNL1        0.0427
     17 H          28.8998   64.8215    8.6819 H       1  UNL1        0.0427
     18 H          27.8926   65.4699    6.4755 H       1  UNL1        0.0278
     19 H          29.3904   64.5834    6.2795 H       1  UNL1        0.0278
     20 H          29.4120   66.5066    4.7728 H       1  UNL1        0.0291
     21 H          29.0562   67.5840    6.1191 H       1  UNL1        0.0291
     22 H          31.4231   64.6885    9.9274 H       1  UNL1        0.0453
     23 H          30.6302   66.1475   10.3791 H       1  UNL1        0.0453
     24 H          32.7146   67.2037   10.3515 H       1  UNL1        0.0632
     25 H          33.6904   64.8293    9.1669 H       1  UNL1        0.2099
     26 H          33.1547   68.0746    8.1613 H       1  UNL1        0.0636
     27 H          33.3314   65.3957    7.2764 H       1  UNL1        0.2100
@<TRIPOS>BOND
     1     1     2    1
     2     1     3    1
     3     3     4    1
     4     4     5    1
     5     5     6    1
     6     1     7    1
     7     6     7    1
     8     4     8    1
     9     8     9    1
    10     9    10    1
    11     3    11    1
    12     9    11    1
    13    11    12    1
    14     1    13    1
    15     2    14    1
    16     3    15    1
    17     5    16    1
    18     5    17    1
    19     6    18    1
    20     6    19    1
    21     7    20    1
    22     7    21    1
    23     8    22    1
    24     8    23    1
    25     9    24    1
    26    10    25    1
    27    11    26    1
    28    12    27    1
