@<TRIPOS>MOLECULE
1HWW_SWA_A_1103
 27 28 0 0 0
SMALL
GASTEIGER

@<TRIPOS>ATOM
      1 C          -0.4594    1.4627    0.1014 C.3     1  UNL1        0.0733
      2 O          -0.0478    2.7537   -0.2670 O.3     1  UNL1       -0.3902
      3 C           0.5957    0.4282   -0.3771 C.3     1  UNL1        0.0649
      4 N           0.5416   -0.8709    0.3338 N.3     1  UNL1       -0.2921
      5 C          -0.7504   -1.1169    1.0042 C.3     1  UNL1       -0.0005
      6 C          -1.0224   -0.0448    2.0727 C.3     1  UNL1       -0.0378
      7 C          -0.5986    1.3683    1.6266 C.3     1  UNL1       -0.0241
      8 C           0.8408   -1.9156   -0.6643 C.3     1  UNL1        0.0279
      9 C           1.2504   -1.2173   -1.9585 C.3     1  UNL1        0.0952
     10 O           0.8436   -1.9399   -3.0915 O.3     1  UNL1       -0.3879
     11 C           0.5641    0.1349   -1.8792 C.3     1  UNL1        0.1001
     12 O          -0.7603    0.0399   -2.3441 O.3     1  UNL1       -0.3875
     13 H          -1.4551    1.2459   -0.3502 H       1  UNL1        0.0610
     14 H          -0.8390    3.3459   -0.1709 H       1  UNL1        0.2098
     15 H           1.5967    0.8636   -0.1519 H       1  UNL1        0.0514
     16 H          -1.5808   -1.1187    0.2611 H       1  UNL1        0.0427
     17 H          -0.7348   -2.1132    1.4988 H       1  UNL1        0.0427
     18 H          -2.1084   -0.0501    2.3106 H       1  UNL1        0.0278
     19 H          -0.4765   -0.3082    3.0050 H       1  UNL1        0.0278
     20 H          -1.3469    2.1094    1.9832 H       1  UNL1        0.0291
     21 H           0.3771    1.6254    2.0960 H       1  UNL1        0.0291
     22 H           1.6731   -2.5520   -0.2953 H       1  UNL1        0.0453
     23 H          -0.0365   -2.5757   -0.8605 H       1  UNL1        0.0453
     24 H           2.3554   -1.0632   -1.9729 H       1  UNL1        0.0632
     25 H           1.4414   -2.7303   -3.1489 H       1  UNL1        0.2099
     26 H           1.1303    0.9133   -2.4436 H       1  UNL1        0.0636
     27 H          -0.7315    0.1955   -3.3241 H       1  UNL1        0.2100
@<TRIPOS>BOND
     1     1     2    1
     2     1     3    1
     3     3     4    1
     4     4     5    1
     5     5     6    1
     6     1     7    1
     7     6     7    1
     8     4     8    1
     9     8     9    1
    10     9    10    1
    11     3    11    1
    12     9    11    1
    13    11    12    1
    14     1    13    1
    15     2    14    1
    16     3    15    1
    17     5    16    1
    18     5    17    1
    19     6    18    1
    20     6    19    1
    21     7    20    1
    22     7    21    1
    23     8    22    1
    24     8    23    1
    25     9    24    1
    26    10    25    1
    27    11    26    1
    28    12    27    1
