1JLA_TNK_A_999
     RDKit          3D

 27 29  0  0  0  0  0  0  0  0999 V2000
   -1.7313  -34.6913   26.6665 C   0  0  0  0  0  0  0  0  0  0  0  0
   -1.9632  -34.5436   28.0498 C   0  0  0  0  0  0  0  0  0  0  0  0
   -1.5695  -33.4474   28.7559 C   0  0  0  0  0  0  0  0  0  0  0  0
   -0.9099  -32.4036   28.1439 C   0  0  0  0  0  0  0  0  0  0  0  0
   -0.6675  -32.5116   26.8037 C   0  0  0  0  0  0  0  0  0  0  0  0
   -1.0762  -33.6444   26.0812 C   0  0  0  0  0  0  0  0  0  0  0  0
   -1.9197  -36.0587   24.5750 C   0  0  0  0  0  0  0  0  0  0  0  0
   -2.7836  -35.6442   23.6095 N   0  0  0  0  0  0  0  0  0  0  0  0
   -2.4577  -35.7219   22.2868 C   0  0  0  0  0  0  0  0  0  0  0  0
   -3.2833  -35.3262   21.3951 O   0  0  0  0  0  0  0  0  0  0  0  0
   -1.2978  -36.1984   21.8454 N   0  0  0  0  0  0  0  0  0  0  0  0
   -0.4112  -36.6226   22.7498 C   0  0  0  0  0  0  0  0  0  0  0  0
    0.6809  -37.0711   22.3288 O   0  0  0  0  0  0  0  0  0  0  0  0
   -0.7117  -36.5594   24.1200 C   0  0  0  0  0  0  0  0  0  0  0  0
   -2.2162  -35.9121   25.9949 C   0  0  0  0  0  0  0  0  0  0  0  0
    0.3087  -37.1624   25.0091 C   0  0  1  0  0  0  0  0  0  0  0  0
    0.2444  -38.7009   24.8355 C   0  0  0  0  0  0  0  0  0  0  0  0
    1.6756  -36.7479   24.5383 C   0  0  0  0  0  0  0  0  0  0  0  0
   -4.0947  -35.1172   23.9005 C   0  0  0  0  0  0  0  0  0  0  0  0
   -4.2077  -33.7812   23.4396 O   0  0  0  0  0  0  0  0  0  0  0  0
   -5.4636  -33.6589   22.8892 C   0  0  0  0  0  0  0  0  0  0  0  0
   -6.5258  -34.2547   23.7502 C   0  0  0  0  0  0  0  0  0  0  0  0
   -7.1315  -35.4144   23.3017 C   0  0  0  0  0  0  0  0  0  0  0  0
   -8.1300  -36.0330   24.0472 C   0  0  0  0  0  0  0  0  0  0  0  0
   -8.5116  -35.4654   25.2551 C   0  0  0  0  0  0  0  0  0  0  0  0
   -7.8892  -34.3028   25.6826 C   0  0  0  0  0  0  0  0  0  0  0  0
   -6.9120  -33.6978   24.9523 C   0  0  0  0  0  0  0  0  0  0  0  0
  1  2  2  0
  2  3  1  0
  3  4  2  0
  4  5  1  0
  1  6  1  0
  5  6  2  0
  7  8  1  0
  8  9  1  0
  9 10  2  0
  9 11  1  0
 11 12  1  0
 12 13  2  0
  7 14  2  0
 12 14  1  0
 15  1  1  6
  7 15  1  0
 16 14  1  6
 17 16  1  6
 18 16  1  6
  8 19  1  0
 19 20  1  1
 21 20  1  1
 21 22  1  0
 22 23  2  0
 23 24  1  0
 24 25  2  0
 25 26  1  0
 22 27  1  0
 26 27  2  0
M  END
$$$$
