7WPW_F15_A_200
     RDKit          3D

 17 16  0  0  0  0  0  0  0  0999 V2000
    5.8910  -17.5923   -5.2286 C   0  0  0  0  0  0  0  0  0  0  0  0
    6.3950  -18.4190   -4.3983 O   0  0  0  0  0  0  0  0  0  0  0  0
    4.7379  -17.1179   -5.1077 O   0  0  0  0  0  0  0  0  0  0  0  0
    6.7515  -17.1758   -6.3903 C   0  0  0  0  0  0  0  0  0  0  0  0
    7.5605  -15.9339   -6.2174 C   0  0  0  0  0  0  0  0  0  0  0  0
    8.6181  -13.9716   -7.3914 C   0  0  0  0  0  0  0  0  0  0  0  0
    9.5060  -13.4931   -8.5321 C   0  0  0  0  0  0  0  0  0  0  0  0
    8.2341  -15.4241   -7.4795 C   0  0  0  0  0  0  0  0  0  0  0  0
   10.9773  -13.7381   -8.3616 C   0  0  0  0  0  0  0  0  0  0  0  0
   11.6251  -12.7710   -7.4146 C   0  0  0  0  0  0  0  0  0  0  0  0
   13.0864  -13.1311   -7.2594 C   0  0  0  0  0  0  0  0  0  0  0  0
   13.9784  -12.0398   -6.7991 C   0  0  0  0  0  0  0  0  0  0  0  0
   14.1950  -11.9759   -5.3538 C   0  0  0  0  0  0  0  0  0  0  0  0
   14.5653  -13.2471   -4.6783 C   0  0  0  0  0  0  0  0  0  0  0  0
   14.9318  -12.8670   -3.2918 C   0  0  0  0  0  0  0  0  0  0  0  0
   15.0913  -13.9870   -2.2839 C   0  0  0  0  0  0  0  0  0  0  0  0
   14.5128  -13.5475   -0.9573 C   0  0  0  0  0  0  0  0  0  0  0  0
  1  2  1  0
  1  3  2  0
  1  4  1  0
  4  5  1  0
  6  7  1  0
  5  8  1  0
  6  8  1  0
  7  9  1  0
  9 10  1  0
 10 11  1  0
 11 12  1  0
 12 13  1  0
 13 14  1  0
 14 15  1  0
 15 16  1  0
 16 17  1  0
M  END
