1N2V_BDI_A_900
     RDKit          3D

 27 28  0  0  0  0  0  0  0  0999 V2000
   17.4611   17.3095   20.0693 N   0  0  0  0  0  0  0  0  0  0  0  0
   16.2071   17.1176   19.6977 C   0  0  0  0  0  0  0  0  0  0  0  0
   15.8065   16.9193   18.2338 C   0  0  0  0  0  0  0  0  0  0  0  0
   16.4559   17.8731   17.1799 C   0  0  0  0  0  0  0  0  0  0  0  0
   17.4787   18.8133   17.8984 C   0  0  0  0  0  0  0  0  0  0  0  0
   18.2557   18.1047   19.0350 C   0  0  0  0  0  0  0  0  0  0  0  0
   15.4353   17.1182   20.6533 N   0  0  0  0  0  4  0  0  0  0  0  0
   16.1065   17.3227   21.8955 C   0  0  0  0  0  0  0  0  0  0  0  0
   15.6548   17.4065   23.3170 C   0  0  0  0  0  0  0  0  0  0  0  0
   16.6644   17.6225   24.2631 N   0  0  0  0  0  4  0  0  0  0  0  0
   18.1153   17.7652   23.8998 N   0  0  0  0  0  4  0  0  0  0  0  0
   18.5915   17.6954   22.5767 C   0  0  0  0  0  0  0  0  0  0  0  0
   19.8108   17.8141   22.2555 O   0  0  0  0  0  0  0  0  0  0  0  0
   17.4810   17.4550   21.5132 C   0  0  0  0  0  0  0  0  0  0  0  0
   14.4642   17.2887   23.5981 O   0  0  0  0  0  0  0  0  0  0  0  0
   14.7458   17.0444   18.1706 H   0  0  0  0  0  0  0  0  0  0  0  0
   16.1642   15.9434   17.9798 H   0  0  0  0  0  0  0  0  0  0  0  0
   15.6944   18.4625   16.7134 H   0  0  0  0  0  0  0  0  0  0  0  0
   16.9613   17.2947   16.4348 H   0  0  0  0  0  0  0  0  0  0  0  0
   16.9455   19.6423   18.3150 H   0  0  0  0  0  0  0  0  0  0  0  0
   18.1947   19.1261   17.1674 H   0  0  0  0  0  0  0  0  0  0  0  0
   17.5683   17.7773   19.7868 H   0  0  0  0  0  0  0  0  0  0  0  0
   18.9577   18.7873   19.4665 H   0  0  0  0  0  0  0  0  0  0  0  0
   18.7781   17.2599   18.6371 H   0  0  0  0  0  0  0  0  0  0  0  0
   14.4624   16.9916   20.5711 H   0  0  0  0  0  0  0  0  0  0  0  0
   16.4111   17.6839   25.2124 H   0  0  0  0  0  0  0  0  0  0  0  0
   18.7657   17.9152   24.6235 H   0  0  0  0  0  0  0  0  0  0  0  0
  1  2  4  0
  2  3  1  0
  3  4  1  0
  4  5  1  0
  5  6  1  0
  2  7  4  0
  7  8  4  0
  8  9  4  0
  9 10  4  0
 10 11  4  0
 11 12  4  0
 12 13  2  0
  1 14  4  0
  8 14  4  0
 12 14  4  0
  9 15  2  0
  3 16  1  0
  3 17  1  0
  4 18  1  0
  4 19  1  0
  5 20  1  0
  5 21  1  0
  6 22  1  0
  6 23  1  0
  6 24  1  0
  7 25  1  0
 10 26  1  0
 11 27  1  0
M  CHG  3   7   1  10   1  11   1
M  END
