@<TRIPOS>MOLECULE
1N2V_BDI_A_900
 27 28 0 0 0
SMALL
GASTEIGER

@<TRIPOS>ATOM
      1 N          -0.6250    0.2654   -1.2455 N.ar    1  UNL1       -0.2268
      2 C          -0.6613   -0.7995   -0.3991 C.ar    1  UNL1        0.1085
      3 C          -1.7062   -0.9605    0.6628 C.3     1  UNL1        0.0054
      4 C          -1.1658   -0.6076    2.0575 C.3     1  UNL1       -0.0465
      5 C          -0.6849    0.8479    2.1983 C.3     1  UNL1       -0.0555
      6 C          -1.8179    1.8641    2.0610 C.3     1  UNL1       -0.0653
      7 N           0.3666   -1.6688   -0.5682 N.ar    1  UNL1       -0.3374
      8 C           1.0720   -1.1294   -1.5698 C.ar    1  UNL1        0.1381
      9 C           2.2391   -1.5806   -2.1711 C.ar    1  UNL1        0.2888
     10 N           2.7657   -0.8251   -3.1830 N.ar    1  UNL1       -0.2615
     11 N           2.1795    0.3171   -3.5844 N.ar    1  UNL1       -0.2615
     12 C           1.0303    0.7753   -2.9989 C.ar    1  UNL1        0.2908
     13 O           0.4920    1.8483   -3.3815 O.2     1  UNL1       -0.2641
     14 C           0.4805    0.0200   -1.9720 C.ar    1  UNL1        0.1598
     15 O           2.7974   -2.6477   -1.8009 O.2     1  UNL1       -0.2642
     16 H          -2.5943   -0.3401    0.4202 H       1  UNL1        0.0343
     17 H          -2.0422   -2.0196    0.6688 H       1  UNL1        0.0343
     18 H          -0.3172   -1.2855    2.2962 H       1  UNL1        0.0269
     19 H          -1.9601   -0.8045    2.8101 H       1  UNL1        0.0269
     20 H           0.1074    1.0700    1.4518 H       1  UNL1        0.0263
     21 H          -0.2310    0.9673    3.2058 H       1  UNL1        0.0263
     22 H          -2.6489    1.6169    2.7553 H       1  UNL1        0.0230
     23 H          -2.1988    1.8883    1.0190 H       1  UNL1        0.0230
     24 H          -1.4372    2.8766    2.3115 H       1  UNL1        0.0230
     25 H           0.5656   -2.5448   -0.0354 H       1  UNL1        0.1672
     26 H           3.6434   -1.1407   -3.6547 H       1  UNL1        0.1901
     27 H           2.6132    0.8670   -4.3603 H       1  UNL1        0.1901
@<TRIPOS>BOND
     1     1     2   ar
     2     2     3    1
     3     3     4    1
     4     4     5    1
     5     5     6    1
     6     2     7   ar
     7     7     8   ar
     8     8     9   ar
     9     9    10   ar
    10    10    11   ar
    11    11    12   ar
    12    12    13    2
    13     1    14   ar
    14     8    14   ar
    15    12    14   ar
    16     9    15    2
    17     3    16    1
    18     3    17    1
    19     4    18    1
    20     4    19    1
    21     5    20    1
    22     5    21    1
    23     6    22    1
    24     6    23    1
    25     6    24    1
    26     7    25    1
    27    10    26    1
    28    11    27    1
