1N2V_BDI_A_900
     RDKit          3D

 27 28  0  0  0  0  0  0  0  0999 V2000
   -0.6250    0.2654   -1.2455 N   0  0  0  0  0  0  0  0  0  0  0  0
   -0.6613   -0.7995   -0.3991 C   0  0  0  0  0  0  0  0  0  0  0  0
   -1.7062   -0.9605    0.6628 C   0  0  0  0  0  0  0  0  0  0  0  0
   -1.1658   -0.6076    2.0575 C   0  0  0  0  0  0  0  0  0  0  0  0
   -0.6849    0.8479    2.1983 C   0  0  0  0  0  0  0  0  0  0  0  0
   -1.8179    1.8641    2.0610 C   0  0  0  0  0  0  0  0  0  0  0  0
    0.3666   -1.6688   -0.5682 N   0  0  0  0  0  0  0  0  0  0  0  0
    1.0720   -1.1294   -1.5698 C   0  0  0  0  0  0  0  0  0  0  0  0
    2.2391   -1.5806   -2.1711 C   0  0  0  0  0  0  0  0  0  0  0  0
    2.7657   -0.8251   -3.1830 N   0  0  0  0  0  0  0  0  0  0  0  0
    2.1795    0.3171   -3.5844 N   0  0  0  0  0  0  0  0  0  0  0  0
    1.0303    0.7753   -2.9989 C   0  0  0  0  0  0  0  0  0  0  0  0
    0.4920    1.8483   -3.3815 O   0  0  0  0  0  0  0  0  0  0  0  0
    0.4805    0.0200   -1.9720 C   0  0  0  0  0  0  0  0  0  0  0  0
    2.7974   -2.6477   -1.8009 O   0  0  0  0  0  0  0  0  0  0  0  0
   -2.5943   -0.3401    0.4202 H   0  0  0  0  0  0  0  0  0  0  0  0
   -2.0422   -2.0196    0.6688 H   0  0  0  0  0  0  0  0  0  0  0  0
   -0.3172   -1.2855    2.2962 H   0  0  0  0  0  0  0  0  0  0  0  0
   -1.9601   -0.8045    2.8101 H   0  0  0  0  0  0  0  0  0  0  0  0
    0.1074    1.0700    1.4518 H   0  0  0  0  0  0  0  0  0  0  0  0
   -0.2310    0.9673    3.2058 H   0  0  0  0  0  0  0  0  0  0  0  0
   -2.6489    1.6169    2.7553 H   0  0  0  0  0  0  0  0  0  0  0  0
   -2.1988    1.8883    1.0190 H   0  0  0  0  0  0  0  0  0  0  0  0
   -1.4372    2.8766    2.3115 H   0  0  0  0  0  0  0  0  0  0  0  0
    0.5656   -2.5448   -0.0354 H   0  0  0  0  0  0  0  0  0  0  0  0
    3.6434   -1.1407   -3.6547 H   0  0  0  0  0  0  0  0  0  0  0  0
    2.6132    0.8670   -4.3603 H   0  0  0  0  0  0  0  0  0  0  0  0
  1  2  2  0
  2  3  1  0
  3  4  1  0
  4  5  1  0
  5  6  1  0
  2  7  1  0
  7  8  1  0
  8  9  1  0
  9 10  1  0
 10 11  1  0
 11 12  1  0
 12 13  2  0
  1 14  1  0
  8 14  2  0
 12 14  1  0
  9 15  2  0
  3 16  1  0
  3 17  1  0
  4 18  1  0
  4 19  1  0
  5 20  1  0
  5 21  1  0
  6 22  1  0
  6 23  1  0
  6 24  1  0
  7 25  1  0
 10 26  1  0
 11 27  1  0
M  END
