
     RDKit          3D

  9  8  0  0  0  0  0  0  0  0999 V2000
   30.8669   17.5038   16.9831 C   0  0  0  0  0  0  0  0  0  0  0  0
   30.5441   17.6918   14.4613 C   0  0  0  0  0  0  0  0  0  0  0  0
   29.5353   16.5510   14.4395 C   0  0  0  0  0  0  0  0  0  0  0  0
   33.5588   16.1943   16.5225 C   0  0  0  0  0  0  0  0  0  0  0  0
   31.5605   17.5896   15.6155 C   0  0  0  0  0  0  0  0  0  0  0  0
   31.5811   18.2708   17.9441 O   0  0  0  0  0  0  0  0  0  0  0  0
   32.5643   16.4337   15.3805 C   0  0  0  0  0  0  0  0  0  0  0  0
   35.0136   16.4490   16.1158 C   0  0  0  0  0  0  0  0  0  0  0  0
   36.0028   15.4923   16.7634 C   0  0  0  0  0  0  0  0  0  0  0  0
  2  3  1  0
  5  1  1  0
  2  5  1  0
  1  6  1  0
  4  7  1  0
  5  7  1  0
  4  8  1  0
  8  9  1  0
M  END
