
     RDKit          3D

 51 56  0  0  0  0  0  0  0  0999 V2000
    9.4607   11.5294    5.2046 C   0  0  0  0  0  0  0  0  0  0  0  0
   13.2392   14.3449    4.0986 C   0  0  0  0  0  0  0  0  0  0  0  0
   13.6176   14.4033    5.4384 C   0  0  0  0  0  0  0  0  0  0  0  0
   14.8518   14.9636    5.7902 C   0  0  0  0  0  0  0  0  0  0  0  0
   15.7173   15.4822    4.7928 C   0  0  0  0  0  0  0  0  0  0  0  0
   15.3509   15.3562    3.4459 C   0  0  0  0  0  0  0  0  0  0  0  0
   14.1030   14.8097    3.0909 C   0  0  0  0  0  0  0  0  0  0  0  0
   17.2983   16.4781    3.5248 C   0  0  0  0  0  0  0  0  0  0  0  0
   16.9455   16.2006    4.8222 C   0  0  0  0  0  0  0  0  0  0  0  0
   16.5166   15.7916    1.1723 C   0  0  1  0  0  0  0  0  0  0  0  0
   18.0093   16.0294    0.7723 C   0  0  0  0  0  0  0  0  0  0  0  0
   16.0753   14.3803    0.6771 C   0  0  0  0  0  0  0  0  0  0  0  0
   16.5089   12.0960    0.4538 C   0  0  0  0  0  0  0  0  0  0  0  0
    9.2557   12.9912    3.2493 C   0  0  0  0  0  0  0  0  0  0  0  0
    9.9111   13.9964    2.3222 C   0  0  0  0  0  0  0  0  0  0  0  0
   11.1817   14.3519    2.5573 C   0  0  0  0  0  0  0  0  0  0  0  0
   11.9196   13.8305    3.6970 C   0  0  0  0  0  0  0  0  0  0  0  0
   11.3328   12.9328    4.5053 C   0  0  0  0  0  0  0  0  0  0  0  0
   10.0406   12.4898    4.2796 N   0  0  0  0  0  0  0  0  0  0  0  0
   16.3910   15.8793    2.6712 N   0  0  0  0  0  0  0  0  0  0  0  0
   16.9069   13.3174    0.8781 N   0  0  0  0  0  0  0  0  0  0  0  0
   15.3065   11.8577   -0.1823 C   0  0  0  0  0  0  0  0  0  0  0  0
   14.4602   12.9376   -0.3996 C   0  0  0  0  0  0  0  0  0  0  0  0
   14.8426   14.2075    0.0332 C   0  0  0  0  0  0  0  0  0  0  0  0
   15.6932   16.9289    0.4786 C   0  0  0  0  0  0  0  0  0  0  0  0
   14.5361   17.4585    1.0744 C   0  0  0  0  0  0  0  0  0  0  0  0
   13.8057   18.4529    0.4200 C   0  0  0  0  0  0  0  0  0  0  0  0
   14.2408   18.9060   -0.8196 C   0  0  0  0  0  0  0  0  0  0  0  0
   15.3983   18.3601   -1.3416 C   0  0  0  0  0  0  0  0  0  0  0  0
   16.1213   17.4001   -0.7248 N   0  0  0  0  0  0  0  0  0  0  0  0
   15.1903   15.0899    7.1802 N   0  0  0  0  0  0  0  0  0  0  0  0
   13.9831   15.7789    8.1762 S   0  0  1  0  0  6  0  0  0  0  0  0
   14.9728   16.1988    9.5676 C   0  0  0  0  0  0  0  0  0  0  0  0
   15.7970   15.0154    9.9318 C   0  0  0  0  0  0  0  0  0  0  0  0
   16.9180   14.9064    9.1944 F   0  0  0  0  0  0  0  0  0  0  0  0
   15.1205   13.8535    9.8599 F   0  0  0  0  0  0  0  0  0  0  0  0
   16.1976   15.1466   11.2257 F   0  0  0  0  0  0  0  0  0  0  0  0
   13.6018   16.9930    7.4883 O   0  0  0  0  0  0  0  0  0  0  0  0
   13.0291   14.7686    8.5663 O   0  0  0  0  0  0  0  0  0  0  0  0
    9.0920   14.4989    1.3298 N   0  0  0  0  0  0  0  0  0  0  0  0
    9.3938   15.4420    0.3681 C   0  0  0  0  0  0  0  0  0  0  0  0
    8.7777   15.1222   -0.8286 N   0  0  0  0  0  0  0  0  0  0  0  0
    8.4103   16.0094   -1.8650 C   0  0  0  0  0  0  0  0  0  0  0  0
    7.0950   16.3935   -2.1409 C   0  0  0  0  0  0  0  0  0  0  0  0
    6.8288   17.2802   -3.1914 C   0  0  0  0  0  0  0  0  0  0  0  0
    7.8699   17.7898   -3.9686 C   0  0  0  0  0  0  0  0  0  0  0  0
    9.1866   17.4273   -3.6940 C   0  0  0  0  0  0  0  0  0  0  0  0
    9.4455   16.5516   -2.6422 C   0  0  0  0  0  0  0  0  0  0  0  0
   10.7211   16.2200   -2.3706 F   0  0  0  0  0  0  0  0  0  0  0  0
   10.1034   16.4235    0.5571 O   0  0  0  0  0  0  0  0  0  0  0  0
    8.0815   12.6717    3.0449 O   0  0  0  0  0  0  0  0  0  0  0  0
  2  3  4  0
  3  4  4  0
  4  5  4  0
  5  6  4  0
  6  7  4  0
  2  7  4  0
  8  9  4  0
  5  9  4  0
 10 11  1  1
 10 12  1  0
 14 15  4  0
 15 16  4  0
 16 17  4  0
  2 17  1  0
 17 18  4  0
 14 19  4  0
 18 19  4  0
  1 19  1  0
 10 20  1  0
  8 20  4  0
  6 20  4  0
 12 21  4  0
 13 21  4  0
 13 22  4  0
 22 23  4  0
 23 24  4  0
 12 24  4  0
 10 25  1  0
 25 26  4  0
 26 27  4  0
 27 28  4  0
 28 29  4  0
 29 30  4  0
 25 30  4  0
  4 31  1  0
 31 32  1  0
 32 33  1  1
 33 34  1  0
 34 35  1  0
 34 36  1  0
 34 37  1  0
 32 38  2  0
 32 39  2  0
 15 40  1  0
 40 41  1  0
 41 42  1  0
 42 43  1  0
 43 44  4  0
 44 45  4  0
 45 46  4  0
 46 47  4  0
 47 48  4  0
 43 48  4  0
 48 49  1  0
 41 50  2  0
 14 51  2  0
M  END
