7RPZ_6IC_A_202
     RDKit          3D

 44 51  0  0  0  0  0  0  0  0999 V2000
   -2.6175    6.3947    2.0778 C   0  0  0  0  0  0  0  0  0  0  0  0
   -3.6895    5.8330    1.3951 C   0  0  0  0  0  0  0  0  0  0  0  0
   -1.8380    5.5274    2.8071 C   0  0  0  0  0  0  0  0  0  0  0  0
   -3.1041    3.6264    2.2225 C   0  0  0  0  0  0  0  0  0  0  0  0
   -2.0498    4.1697    2.9002 C   0  0  0  0  0  0  0  0  0  0  0  0
   -3.9122    4.4793    1.4777 C   0  0  0  0  0  0  0  0  0  0  0  0
   -5.2756    2.6470    0.8971 C   0  0  0  0  0  0  0  0  0  0  0  0
   -2.6567   -4.8100    6.0308 C   0  0  0  0  0  0  0  0  0  0  0  0
   -2.2753   -2.3356    6.3459 C   0  0  0  0  0  0  0  0  0  0  0  0
   -5.0233    3.9972    0.7963 C   0  0  0  0  0  0  0  0  0  0  0  0
   -1.0846   -0.6619    4.2254 C   0  0  0  0  0  0  0  0  0  0  0  0
   -0.4835    0.0414    3.1881 C   0  0  0  0  0  0  0  0  0  0  0  0
    1.5247   -1.1876    3.4799 C   0  0  0  0  0  0  0  0  0  0  0  0
   -0.3617   -1.6191    4.8701 C   0  0  0  0  0  0  0  0  0  0  0  0
   -2.3818   -0.3967    4.6060 C   0  0  0  0  0  0  0  0  0  0  0  0
   -2.5084    1.2803    2.9198 C   0  0  0  0  0  0  0  0  0  0  0  0
   -1.2076    1.0172    2.5357 C   0  0  0  0  0  0  0  0  0  0  0  0
   -3.3396    2.2976    2.3233 C   0  0  0  0  0  0  0  0  0  0  0  0
    3.9460   -1.7975    3.8240 C   0  0  0  0  0  0  0  0  0  0  0  0
   -0.0130   -3.4064    6.5845 C   0  0  0  0  0  0  0  0  0  0  0  0
   -0.7412   -4.4721    7.3258 C   0  0  2  0  0  0  0  0  0  0  0  0
   -2.7710   -3.6212    6.9724 C   0  0  2  0  0  0  0  0  0  0  0  0
   -1.3684   -5.5040    6.4237 C   0  0  0  0  0  0  0  0  0  0  0  0
   -4.4674    1.8087    1.6341 C   0  0  0  0  0  0  0  0  0  0  0  0
    4.8202   -2.9143    3.4054 C   0  0  1  0  0  0  0  0  0  0  0  0
    4.1763   -4.2202    3.8366 C   0  0  0  0  0  0  0  0  0  0  0  0
    5.3437   -5.0896    4.2594 C   0  0  2  0  0  0  0  0  0  0  0  0
    6.3240   -4.0733    4.7859 C   0  0  0  0  0  0  0  0  0  0  0  0
    7.1117   -2.4390    3.3319 C   0  0  0  0  0  0  0  0  0  0  0  0
    6.6220   -2.3065    1.9327 C   0  0  0  0  0  0  0  0  0  0  0  0
    5.2454   -2.9371    1.9865 C   0  0  0  0  0  0  0  0  0  0  0  0
   -1.1864    3.4549    3.7941 C   0  0  0  0  0  0  0  0  0  0  0  0
   -0.4496    2.8332    4.5376 C   0  0  0  0  0  0  0  0  0  0  0  0
   -0.6554    1.7286    1.5153 F   0  0  0  0  0  0  0  0  0  0  0  0
    5.8270   -5.8586    3.2458 F   0  0  0  0  0  0  0  0  0  0  0  0
   -0.7813    6.1181    3.4718 F   0  0  0  0  0  0  0  0  0  0  0  0
    0.7668   -0.2547    2.8766 N   0  0  0  0  0  0  0  0  0  0  0  0
    0.8946   -1.8594    4.4995 N   0  0  0  0  0  0  0  0  0  0  0  0
   -3.0927    0.5729    3.9531 N   0  0  0  0  0  0  0  0  0  0  0  0
   -0.8932   -2.4421    5.9251 N   0  0  0  0  0  0  0  0  0  0  0  0
   -1.8935   -4.0050    8.0695 N   0  0  0  0  0  0  0  0  0  0  0  0
    6.0357   -2.8145    4.1952 N   0  0  0  0  0  0  0  0  0  0  0  0
    2.7912   -1.5221    3.1971 O   0  0  0  0  0  0  0  0  0  0  0  0
   -6.3840    2.0771    0.2398 O   0  0  0  0  0  0  0  0  0  0  0  0
  1  2  2  0
  1  3  1  0
  4  5  1  0
  3  5  2  0
  4  6  2  0
  2  6  1  0
  7 10  2  0
  6 10  1  0
 11 12  1  0
 11 14  1  0
 11 15  2  0
 16 17  1  0
 12 17  2  0
 16 18  1  0
  4 18  1  0
 21 20  1  6
 22  9  1  6
  8 22  1  0
 21 23  1  0
  8 23  1  0
  7 24  1  0
 18 24  2  0
 25 19  1  6
 25 26  1  0
 26 27  1  0
 27 28  1  0
 29 30  1  0
 30 31  1  0
 25 31  1  0
  5 32  1  0
 32 33  3  0
 17 34  1  0
 27 35  1  6
  3 36  1  0
 12 37  1  0
 13 37  2  0
 14 38  2  0
 13 38  1  0
 15 39  1  0
 16 39  2  0
  9 40  1  0
 14 40  1  0
 20 40  1  0
 22 41  1  0
 21 41  1  0
 29 42  1  0
 28 42  1  0
 25 42  1  0
 13 43  1  0
 19 43  1  0
  7 44  1  0
M  END
$$$$
