
     RDKit          3D

 23 23  0  0  0  0  0  0  0  0999 V2000
   20.0802   33.5598   15.9753 C   0  0  0  0  0  0  0  0  0  0  0  0
   18.7344   33.2597   15.3239 C   0  0  0  0  0  0  0  0  0  0  0  0
   20.3368   35.0642   16.0138 C   0  0  0  0  0  0  0  0  0  0  0  0
   21.4538   32.7629   15.0550 S   0  0  0  0  0  0  0  0  0  0  0  0
   20.9761   31.0122   15.2271 C   0  0  0  0  0  0  0  0  0  0  0  0
   20.4067   30.6569   16.6093 C   0  0  0  0  0  0  0  0  0  0  0  0
   20.7464   29.2218   17.0671 C   0  0  1  0  0  0  0  0  0  0  0  0
   22.2099   29.1197   17.3148 N   0  0  0  0  0  0  0  0  0  0  0  0
   19.9859   28.8367   18.3753 C   0  0  2  0  0  0  0  0  0  0  0  0
   20.3570   27.5175   18.7748 O   0  0  0  0  0  0  0  0  0  0  0  0
   18.4819   29.0075   18.1088 C   0  0  0  0  0  0  0  0  0  0  0  0
   17.9570   28.8765   17.0025 O   0  0  0  0  0  0  0  0  0  0  0  0
   17.7596   29.3839   19.2338 N   0  0  0  0  0  0  0  0  0  0  0  0
   16.4845   29.9403   19.0006 N   0  0  0  0  0  0  0  0  0  0  0  0
   16.4638   31.2344   18.5073 C   0  0  0  0  0  0  0  0  0  0  0  0
   17.4424   31.7618   17.9830 O   0  0  0  0  0  0  0  0  0  0  0  0
   15.1694   31.9628   18.6041 C   0  0  0  0  0  0  0  0  0  0  0  0
   14.5593   32.2404   19.8360 C   0  0  0  0  0  0  0  0  0  0  0  0
   13.3451   32.9305   19.8759 C   0  0  0  0  0  0  0  0  0  0  0  0
   12.7412   33.3505   18.6905 C   0  0  0  0  0  0  0  0  0  0  0  0
   13.3558   33.0860   17.4676 C   0  0  0  0  0  0  0  0  0  0  0  0
   14.5667   32.3990   17.4172 C   0  0  0  0  0  0  0  0  0  0  0  0
   12.6117   33.6130   16.0085 Cl  0  0  0  0  0  0  0  0  0  0  0  0
  1  2  1  0
  1  3  1  0
  1  4  1  0
  4  5  1  0
  5  6  1  0
  6  7  1  0
  7  8  1  1
  7  9  1  0
  9 10  1  6
  9 11  1  0
 11 12  2  0
 11 13  1  0
 13 14  1  0
 14 15  1  0
 15 16  2  0
 15 17  1  0
 17 18  4  0
 18 19  4  0
 19 20  4  0
 20 21  4  0
 17 22  4  0
 21 22  4  0
 21 23  1  0
M  END
