7UYB_OK0_A_303
     RDKit          3D

 31 34  0  0  0  0  0  0  0  0999 V2000
  -21.8354  -11.1625   -7.4658 C   0  0  0  0  0  0  0  0  0  0  0  0
  -21.3024   -9.8666   -7.7293 C   0  0  0  0  0  0  0  0  0  0  0  0
  -19.8933   -9.6931   -7.8699 C   0  0  0  0  0  0  0  0  0  0  0  0
  -19.2897   -8.3544   -8.2049 C   0  0  2  0  0  0  0  0  0  0  0  0
  -19.9807   -7.2777   -7.3543 C   0  0  0  0  0  0  0  0  0  0  0  0
  -19.3984   -5.8526   -7.6834 C   0  0  0  0  0  0  0  0  0  0  0  0
  -18.8233   -6.6163  -10.0393 C   0  0  0  0  0  0  0  0  0  0  0  0
  -19.4449   -8.0001   -9.7223 C   0  0  0  0  0  0  0  0  0  0  0  0
  -19.0563  -10.8025   -7.7240 C   0  0  0  0  0  0  0  0  0  0  0  0
  -22.4549  -16.2286   -6.7302 C   0  0  0  0  0  0  0  0  0  0  0  0
  -22.6129  -18.6058   -6.8770 F   0  0  0  0  0  0  0  0  0  0  0  0
  -23.0435  -17.5596   -6.2225 C   0  0  2  0  0  0  0  0  0  0  0  0
  -24.4027  -17.5467   -6.2313 F   0  0  0  0  0  0  0  0  0  0  0  0
  -22.7371  -17.7870   -4.9447 F   0  0  0  0  0  0  0  0  0  0  0  0
  -23.0031  -15.4465   -7.7615 C   0  0  0  0  0  0  0  0  0  0  0  0
  -24.0904  -16.1095   -8.9586 S   0  0  1  0  0  0  0  0  0  0  0  0
  -24.0273  -17.5209   -8.7663 O   0  0  0  0  0  0  0  0  0  0  0  0
  -25.5404  -15.5056   -8.7518 N   0  0  0  0  0  0  0  0  0  0  0  0
  -23.5769  -15.6756  -10.2328 O   0  0  0  0  0  0  0  0  0  0  0  0
  -22.5195  -14.1189   -7.9412 C   0  0  0  0  0  0  0  0  0  0  0  0
  -23.1723  -13.1849   -8.8743 C   0  0  0  0  0  0  0  0  0  0  0  0
  -24.4672  -12.9182   -8.9351 N   0  0  0  0  0  0  0  0  0  0  0  0
  -24.5678  -11.9196   -9.8281 N   0  0  0  0  0  0  0  0  0  0  0  0
  -23.3473  -11.5861  -10.2697 N   0  0  0  0  0  0  0  0  0  0  0  0
  -22.4419  -12.3612   -9.7174 N   0  0  0  0  0  0  0  0  0  0  0  0
  -21.3655  -15.7593   -5.9775 C   0  0  0  0  0  0  0  0  0  0  0  0
  -20.8579  -14.4567   -6.1876 C   0  0  0  0  0  0  0  0  0  0  0  0
  -21.4549  -13.6137   -7.1643 C   0  0  0  0  0  0  0  0  0  0  0  0
  -20.9531  -12.2375   -7.3399 C   0  0  0  0  0  0  0  0  0  0  0  0
  -19.5792  -12.0760   -7.4664 C   0  0  0  0  0  0  0  0  0  0  0  0
  -19.5301   -5.5546   -9.1908 N   0  0  0  0  0  0  0  0  0  0  0  0
  1  2  2  0
  2  3  1  0
  4  3  1  6
  4  5  1  0
  5  6  1  0
  7  8  1  0
  4  8  1  0
  3  9  2  0
 10 12  1  0
 12 11  1  6
 12 13  1  0
 12 14  1  0
 10 15  2  0
 15 16  1  0
 16 17  2  0
 16 18  1  1
 16 19  2  0
 15 20  1  0
 20 21  1  0
 21 22  1  0
 22 23  1  0
 23 24  2  0
 24 25  1  0
 21 25  2  0
 10 26  1  0
 26 27  2  0
 20 28  2  0
 27 28  1  0
  1 29  1  0
 28 29  1  0
  9 30  1  0
 29 30  2  0
  7 31  1  0
  6 31  1  0
M  END
