1SQN_NDR_B_2001
     RDKit          3D

 48 51  0  0  0  0  0  0  0  0999 V2000
   -3.8229    2.1636    4.3611 O   0  0  0  0  0  0  0  0  0  0  0  0
   -3.1519    1.7576    3.3756 C   0  0  0  0  0  0  0  0  0  0  0  0
   -3.6986    1.8979    1.9916 C   0  0  0  0  0  0  0  0  0  0  0  0
   -1.8013    1.2196    3.5834 C   0  0  0  0  0  0  0  0  0  0  0  0
   -1.0768    0.7151    2.5688 C   0  0  0  0  0  0  0  0  0  0  0  0
    0.3711    0.3693    2.8229 C   0  0  0  0  0  0  0  0  0  0  0  0
   -1.5950    0.7441    1.1282 C   0  0  2  0  0  0  0  0  0  0  0  0
   -3.1451    0.7946    1.0900 C   0  0  0  0  0  0  0  0  0  0  0  0
   -1.0527   -0.4771    0.3235 C   0  0  2  0  0  0  0  0  0  0  0  0
    0.4947   -0.5985    0.4959 C   0  0  1  0  0  0  0  0  0  0  0  0
    0.8241   -0.8228    1.9816 C   0  0  0  0  0  0  0  0  0  0  0  0
   -1.4743   -0.4245   -1.1780 C   0  0  0  0  0  0  0  0  0  0  0  0
   -0.8363   -1.5418   -2.0375 C   0  0  0  0  0  0  0  0  0  0  0  0
    0.7035   -1.5848   -1.8631 C   0  0  2  0  0  0  0  0  0  0  0  0
    1.0016   -1.7728   -0.3680 C   0  0  1  0  0  0  0  0  0  0  0  0
    1.3229   -0.2737   -2.4564 C   0  0  0  0  0  0  0  0  0  0  0  0
    1.4464   -2.8136   -2.4752 C   0  0  1  0  0  0  0  0  0  0  0  0
    1.7469   -2.6052   -3.8357 O   0  0  0  0  0  0  0  0  0  0  0  0
    2.7412   -2.9124   -1.6184 C   0  0  0  0  0  0  0  0  0  0  0  0
    2.4811   -2.1382   -0.3121 C   0  0  0  0  0  0  0  0  0  0  0  0
    0.6668   -4.0703   -2.3460 C   0  0  0  0  0  0  0  0  0  0  0  0
    0.0368   -5.0931   -2.2411 C   0  0  0  0  0  0  0  0  0  0  0  0
   -4.8082    1.8334    2.0133 H   0  0  0  0  0  0  0  0  0  0  0  0
   -3.4105    2.8926    1.5884 H   0  0  0  0  0  0  0  0  0  0  0  0
   -1.3890    1.2520    4.5854 H   0  0  0  0  0  0  0  0  0  0  0  0
    0.5424    0.1218    3.8940 H   0  0  0  0  0  0  0  0  0  0  0  0
    0.9958    1.2551    2.5759 H   0  0  0  0  0  0  0  0  0  0  0  0
   -1.2078    1.6752    0.6572 H   0  0  0  0  0  0  0  0  0  0  0  0
   -3.4994    1.0028    0.0591 H   0  0  0  0  0  0  0  0  0  0  0  0
   -3.5645   -0.1843    1.4129 H   0  0  0  0  0  0  0  0  0  0  0  0
   -1.5152   -1.3966    0.7519 H   0  0  0  0  0  0  0  0  0  0  0  0
    0.9912    0.3447    0.1856 H   0  0  0  0  0  0  0  0  0  0  0  0
    0.3301   -1.7488    2.3518 H   0  0  0  0  0  0  0  0  0  0  0  0
    1.9205   -0.9433    2.1159 H   0  0  0  0  0  0  0  0  0  0  0  0
   -2.5736   -0.5559   -1.2575 H   0  0  0  0  0  0  0  0  0  0  0  0
   -1.2431    0.5723   -1.6074 H   0  0  0  0  0  0  0  0  0  0  0  0
   -1.0942   -1.3820   -3.1069 H   0  0  0  0  0  0  0  0  0  0  0  0
   -1.2976   -2.5038   -1.7277 H   0  0  0  0  0  0  0  0  0  0  0  0
    0.4546   -2.6793   -0.0101 H   0  0  0  0  0  0  0  0  0  0  0  0
    1.0689   -0.1862   -3.5342 H   0  0  0  0  0  0  0  0  0  0  0  0
    2.4290   -0.2617   -2.3715 H   0  0  0  0  0  0  0  0  0  0  0  0
    0.9507    0.6487   -1.9746 H   0  0  0  0  0  0  0  0  0  0  0  0
    2.3438   -3.3434   -4.1299 H   0  0  0  0  0  0  0  0  0  0  0  0
    3.5983   -2.4462   -2.1528 H   0  0  0  0  0  0  0  0  0  0  0  0
    3.0198   -3.9675   -1.3983 H   0  0  0  0  0  0  0  0  0  0  0  0
    2.7018   -2.7715    0.5747 H   0  0  0  0  0  0  0  0  0  0  0  0
    3.1093   -1.2216   -0.2694 H   0  0  0  0  0  0  0  0  0  0  0  0
   -0.5164   -5.9903   -2.1485 H   0  0  0  0  0  0  0  0  0  0  0  0
  1  2  2  0
  2  3  1  0
  2  4  1  0
  4  5  2  0
  5  6  1  0
  5  7  1  0
  3  8  1  0
  7  8  1  0
  7  9  1  0
  9 10  1  0
  6 11  1  0
 10 11  1  0
  9 12  1  0
 12 13  1  0
 13 14  1  0
 10 15  1  0
 14 15  1  0
 14 16  1  6
 14 17  1  0
 17 18  1  0
 17 19  1  0
 15 20  1  0
 19 20  1  0
 17 21  1  6
 21 22  3  0
  3 23  1  0
  3 24  1  0
  4 25  1  0
  6 26  1  0
  6 27  1  0
  7 28  1  6
  8 29  1  0
  8 30  1  0
  9 31  1  1
 10 32  1  6
 11 33  1  0
 11 34  1  0
 12 35  1  0
 12 36  1  0
 13 37  1  0
 13 38  1  0
 15 39  1  1
 16 40  1  0
 16 41  1  0
 16 42  1  0
 18 43  1  0
 19 44  1  0
 19 45  1  0
 20 46  1  0
 20 47  1  0
 22 48  1  0
M  END
