1SQN_NDR_A_1001
     RDKit          3D

 22 25  0  0  0  0  0  0  0  0999 V2000
   -4.1220   -1.1470   30.7680 O   0  0  0  0  0  0  0  0  0  0  0  0
   -3.7310   -0.3340   29.9590 C   0  0  0  0  0  0  0  0  0  0  0  0
   -4.4900    0.9880   29.7420 C   0  0  0  0  0  0  0  0  0  0  0  0
   -2.5860   -0.6780   29.1600 C   0  0  0  0  0  0  0  0  0  0  0  0
   -2.1910    0.2160   28.1060 C   0  0  0  0  0  0  0  0  0  0  0  0
   -0.8560   -0.1210   27.4590 C   0  0  0  0  0  0  0  0  0  0  0  0
   -2.9580    1.3330   27.6770 C   0  0  2  0  0  0  0  0  0  0  0  0
   -4.3850    1.2920   28.2630 C   0  0  0  0  0  0  0  0  0  0  0  0
   -2.8080    1.6270   26.2540 C   0  0  2  0  0  0  0  0  0  0  0  0
   -1.6160    1.3810   25.5500 C   0  0  1  0  0  0  0  0  0  0  0  0
   -0.9620    0.0700   25.9880 C   0  0  0  0  0  0  0  0  0  0  0  0
   -3.6500    2.8190   25.7550 C   0  0  0  0  0  0  0  0  0  0  0  0
   -3.4930    3.0750   24.1940 C   0  0  0  0  0  0  0  0  0  0  0  0
   -2.1050    2.9940   23.6570 C   0  0  2  0  0  0  0  0  0  0  0  0
   -1.4440    1.7140   24.1630 C   0  0  1  0  0  0  0  0  0  0  0  0
   -1.4140    4.2380   24.2320 C   0  0  0  0  0  0  0  0  0  0  0  0
   -1.8860    2.9150   22.1190 C   0  0  1  0  0  0  0  0  0  0  0  0
   -1.9890    4.1550   21.4200 O   0  0  0  0  0  0  0  0  0  0  0  0
   -0.4500    2.3470   22.0170 C   0  0  0  0  0  0  0  0  0  0  0  0
   -0.2250    1.5110   23.2800 C   0  0  0  0  0  0  0  0  0  0  0  0
   -2.8680    2.0190   21.4830 C   0  0  0  0  0  0  0  0  0  0  0  0
   -3.7620    1.2630   20.9700 C   0  0  0  0  0  0  0  0  0  0  0  0
  1  2  2  0
  2  3  1  0
  2  4  1  0
  4  5  2  0
  5  6  1  0
  5  7  1  0
  3  8  1  0
  7  8  1  6
  7  9  1  0
  9 10  1  0
  6 11  1  0
 10 11  1  6
  9 12  1  1
 12 13  1  0
 13 14  1  0
 10 15  1  0
 14 15  1  0
 14 16  1  1
 14 17  1  0
 17 18  1  6
 17 19  1  0
 15 20  1  1
 19 20  1  0
 17 21  1  0
 21 22  3  0
M  END
$$$$
1SQN_NDR_B_2001
     RDKit          3D

 22 25  0  0  0  0  0  0  0  0999 V2000
   13.6340   27.3160    2.8270 O   0  0  0  0  0  0  0  0  0  0  0  0
   13.0950   26.6900    3.6740 C   0  0  0  0  0  0  0  0  0  0  0  0
   11.5840   26.5160    3.7250 C   0  0  0  0  0  0  0  0  0  0  0  0
   13.9840   26.0000    4.6460 C   0  0  0  0  0  0  0  0  0  0  0  0
   13.3030   25.3140    5.7080 C   0  0  0  0  0  0  0  0  0  0  0  0
   14.2420   24.5200    6.6480 C   0  0  0  0  0  0  0  0  0  0  0  0
   11.9310   25.3170    6.0270 C   0  0  2  0  0  0  0  0  0  0  0  0
   11.1140   26.3650    5.2110 C   0  0  0  0  0  0  0  0  0  0  0  0
   11.5690   25.2100    7.4190 C   0  0  2  0  0  0  0  0  0  0  0  0
   12.3050   24.4370    8.3560 C   0  0  1  0  0  0  0  0  0  0  0  0
   13.8460   24.5280    8.1510 C   0  0  0  0  0  0  0  0  0  0  0  0
   10.0550   25.3520    7.7300 C   0  0  0  0  0  0  0  0  0  0  0  0
    9.7310   25.3670    9.2480 C   0  0  0  0  0  0  0  0  0  0  0  0
   10.4130   24.2660   10.0830 C   0  0  2  0  0  0  0  0  0  0  0  0
   11.8900   24.3280    9.7230 C   0  0  1  0  0  0  0  0  0  0  0  0
    9.8450   22.8630    9.6540 C   0  0  0  0  0  0  0  0  0  0  0  0
   10.4240   24.3410   11.6060 C   0  0  1  0  0  0  0  0  0  0  0  0
    9.2540   23.8750   12.2860 O   0  0  0  0  0  0  0  0  0  0  0  0
   11.6680   23.5360   12.0170 C   0  0  0  0  0  0  0  0  0  0  0  0
   12.6380   23.5840   10.8150 C   0  0  0  0  0  0  0  0  0  0  0  0
   10.6670   25.7460   12.0480 C   0  0  0  0  0  0  0  0  0  0  0  0
   10.9800   26.8940   12.5100 C   0  0  0  0  0  0  0  0  0  0  0  0
  1  2  2  0
  2  3  1  0
  2  4  1  0
  4  5  2  0
  5  6  1  0
  5  7  1  0
  3  8  1  0
  7  8  1  1
  7  9  1  0
  9 10  1  0
  6 11  1  0
 10 11  1  1
  9 12  1  6
 12 13  1  0
 13 14  1  0
 10 15  1  0
 14 15  1  0
 14 16  1  1
 14 17  1  0
 17 18  1  1
 17 19  1  0
 15 20  1  6
 19 20  1  0
 17 21  1  0
 21 22  3  0
M  END
$$$$
