7MY1_IPE_AAA_401
     RDKit          3D

 26 25  0  0  0  0  0  0  0  0999 V2000
    0.1941   -0.0881   -2.1718 C   0  0  0  0  0  0  0  0  0  0  0  0
    0.6125   -0.8935   -3.2494 O   0  0  0  0  0  0  0  0  0  0  0  0
   -0.0464   -0.9622   -0.9407 C   0  0  0  0  0  0  0  0  0  0  0  0
    0.9483   -0.6563    0.1561 C   0  0  0  0  0  0  0  0  0  0  0  0
    2.1523   -0.1475   -0.1443 C   0  0  0  0  0  0  0  0  0  0  0  0
    0.6016   -0.9411    1.5924 C   0  0  0  0  0  0  0  0  0  0  0  0
    1.8655   -0.0823   -4.0766 P   0  0  2  0  0  5  0  0  0  0  0  0
    1.6647    1.4125   -3.9585 O   0  0  0  0  0  0  0  0  0  0  0  0
    1.8056   -0.4973   -5.7169 O   0  0  0  0  0  0  0  0  0  0  0  0
    3.3843   -0.4828   -3.4177 O   0  0  0  0  0  0  0  0  0  0  0  0
    3.7269    0.6371   -2.1815 P   0  0  1  0  0  5  0  0  0  0  0  0
    2.3135    0.8880   -1.2852 O   0  0  0  0  0  0  0  0  0  0  0  0
    4.8021    0.1066   -1.2581 O   0  0  0  0  0  0  0  0  0  0  0  0
    4.2201    2.1145   -2.8459 O   0  0  0  0  0  0  0  0  0  0  0  0
    0.9792    0.6561   -1.9076 H   0  0  0  0  0  0  0  0  0  0  0  0
   -0.7509    0.4483   -2.4171 H   0  0  0  0  0  0  0  0  0  0  0  0
    0.0423   -2.0294   -1.2383 H   0  0  0  0  0  0  0  0  0  0  0  0
   -1.0864   -0.8170   -0.5731 H   0  0  0  0  0  0  0  0  0  0  0  0
    2.8754    0.0674    0.6369 H   0  0  0  0  0  0  0  0  0  0  0  0
    2.4294    0.0602   -1.1736 H   0  0  0  0  0  0  0  0  0  0  0  0
    1.3370   -1.6536    2.0224 H   0  0  0  0  0  0  0  0  0  0  0  0
    0.6212    0.0021    2.1782 H   0  0  0  0  0  0  0  0  0  0  0  0
   -0.4098   -1.3907    1.6792 H   0  0  0  0  0  0  0  0  0  0  0  0
    0.8637   -0.3444   -5.9817 H   0  0  0  0  0  0  0  0  0  0  0  0
    2.5643    1.5531   -0.5954 H   0  0  0  0  0  0  0  0  0  0  0  0
    4.4085    2.6944   -2.0655 H   0  0  0  0  0  0  0  0  0  0  0  0
  1  2  1  0
  1  3  1  0
  3  4  1  0
  4  5  2  3
  4  6  1  0
  7  2  1  6
  7  8  2  0
  7  9  1  0
  7 10  1  0
 11 10  1  1
 11 12  1  0
 11 13  2  0
 11 14  1  0
  1 15  1  0
  1 16  1  0
  3 17  1  0
  3 18  1  0
  5 19  1  0
  5 20  1  0
  6 21  1  0
  6 22  1  0
  6 23  1  0
  9 24  1  0
 12 25  1  0
 14 26  1  0
M  END
