
     RDKit          3D

 44 48  0  0  0  0  0  0  0  0999 V2000
   10.8474  -15.9560   -8.3779 P   0  0  1  0  0  5  0  0  0  0  0  0
   12.0978  -16.9568   -8.4207 O   0  0  0  0  0  0  0  0  0  0  0  0
    9.5528  -16.7017   -8.3185 O   0  0  0  0  0  0  0  0  0  0  0  0
   11.1860  -15.0571   -7.0949 O   0  0  0  0  0  0  0  0  0  0  0  0
   10.3360  -15.1764   -5.9617 C   0  0  0  0  0  0  0  0  0  0  0  0
   10.5483  -13.9818   -5.0330 C   0  0  1  0  0  0  0  0  0  0  0  0
   11.8681  -14.0796   -4.4443 O   0  0  0  0  0  0  0  0  0  0  0  0
   10.5067  -12.6520   -5.7879 C   0  0  1  0  0  0  0  0  0  0  0  0
   10.0520  -11.5824   -4.9408 O   0  0  0  0  0  0  0  0  0  0  0  0
   11.9801  -12.3898   -6.0776 C   0  0  1  0  0  0  0  0  0  0  0  0
   12.2221  -11.0107   -6.3479 O   0  0  0  0  0  0  0  0  0  0  0  0
   12.5991  -12.8791   -4.7656 C   0  0  2  0  0  0  0  0  0  0  0  0
   14.0158  -13.1617   -4.7489 N   0  0  0  0  0  0  0  0  0  0  0  0
   14.9301  -13.0294   -5.7587 C   0  0  0  0  0  0  0  0  0  0  0  0
   16.1608  -13.3315   -5.3755 N   0  0  0  0  0  0  0  0  0  0  0  0
   16.0232  -13.6730   -4.0400 C   0  0  0  0  0  0  0  0  0  0  0  0
   16.9456  -14.0765   -3.0595 C   0  0  0  0  0  0  0  0  0  0  0  0
   18.3370  -14.1280   -3.2619 N   0  0  0  0  0  0  0  0  0  0  0  0
   16.4949  -14.4148   -1.8359 N   0  0  0  0  0  0  0  0  0  0  0  0
   15.1712  -14.3000   -1.5874 C   0  0  0  0  0  0  0  0  0  0  0  0
   14.2054  -13.8821   -2.4237 N   0  0  0  0  0  0  0  0  0  0  0  0
   14.6991  -13.5969   -3.6401 C   0  0  0  0  0  0  0  0  0  0  0  0
   11.1003  -15.0547   -9.6627 O   0  0  0  0  0  0  0  0  0  0  0  0
   10.4662  -13.6234   -9.8695 P   0  0  1  0  0  5  0  0  0  0  0  0
    9.6605  -13.0628   -8.7384 O   0  0  0  0  0  0  0  0  0  0  0  0
   11.7197  -12.7252  -10.2822 O   0  0  0  0  0  0  0  0  0  0  0  0
    9.6769  -13.6774  -11.2778 O   0  0  0  0  0  0  0  0  0  0  0  0
    8.4046  -14.2971  -11.2126 C   0  0  0  0  0  0  0  0  0  0  0  0
    7.5666  -13.9818  -12.4511 C   0  0  1  0  0  0  0  0  0  0  0  0
    7.5217  -12.4522  -12.6881 C   0  0  0  0  0  0  0  0  0  0  0  0
    8.1765  -14.5473  -13.7455 C   0  0  1  0  0  0  0  0  0  0  0  0
    7.1498  -14.5986  -14.7424 O   0  0  0  0  0  0  0  0  0  0  0  0
    9.1959  -13.4831  -14.1564 C   0  0  1  0  0  0  0  0  0  0  0  0
    9.5715  -13.5965  -15.5225 O   0  0  0  0  0  0  0  0  0  0  0  0
    8.4127  -12.1906  -13.9065 C   0  0  2  0  0  0  0  0  0  0  0  0
    9.3229  -11.0172  -13.7146 N   0  0  0  0  0  4  0  0  0  0  0  0
    9.6237  -10.5322  -12.4784 C   0  0  0  0  0  0  0  0  0  0  0  0
   10.4991   -9.4644  -12.3268 C   0  0  0  0  0  0  0  0  0  0  0  0
   10.8994   -8.9866  -10.9907 C   0  0  0  0  0  0  0  0  0  0  0  0
   11.4337   -7.8964  -10.8731 O   0  0  0  0  0  0  0  0  0  0  0  0
   10.6467   -9.7861   -9.9191 N   0  0  0  0  0  0  0  0  0  0  0  0
   11.0856   -8.8937  -13.4502 C   0  0  0  0  0  0  0  0  0  0  0  0
   10.7793   -9.3991  -14.7077 C   0  0  0  0  0  0  0  0  0  0  0  0
    9.8959  -10.4667  -14.8182 C   0  0  0  0  0  0  0  0  0  0  0  0
  1  2  1  6
  1  3  2  0
  1  4  1  0
  4  5  1  0
  6  5  1  6
  6  7  1  0
  6  8  1  0
  8  9  1  1
  8 10  1  0
 10 11  1  1
 10 12  1  0
  7 12  1  0
 12 13  1  6
 13 14  4  0
 14 15  4  0
 15 16  4  0
 16 17  4  0
 17 18  1  0
 17 19  4  0
 19 20  4  0
 20 21  4  0
 21 22  4  0
 13 22  4  0
 16 22  4  0
  1 23  1  0
 23 24  1  0
 24 25  2  0
 24 26  1  6
 24 27  1  0
 27 28  1  0
 29 28  1  1
 29 30  1  0
 29 31  1  0
 31 32  1  6
 31 33  1  0
 33 34  1  6
 33 35  1  0
 30 35  1  0
 35 36  1  1
 36 37  4  0
 37 38  4  0
 38 39  1  0
 39 40  2  0
 39 41  1  0
 38 42  4  0
 42 43  4  0
 36 44  4  0
 43 44  4  0
M  CHG  1  36   1
M  END
