
     RDKit          3D

 47 49  0  0  0  0  0  0  0  0999 V2000
   18.6560   21.8610   13.8782 N   0  0  0  0  0  0  0  0  0  0  0  0
   19.1594   21.7075   15.1241 C   0  0  0  0  0  0  0  0  0  0  0  0
   18.4907   21.6622   16.2936 N   0  0  0  0  0  0  0  0  0  0  0  0
   17.1687   21.7996   16.1079 C   0  0  0  0  0  0  0  0  0  0  0  0
   16.5187   21.9740   14.8973 C   0  0  0  0  0  0  0  0  0  0  0  0
   17.3200   22.0106   13.7426 C   0  0  0  0  0  0  0  0  0  0  0  0
   16.8037   22.1870   12.4614 N   0  0  0  0  0  0  0  0  0  0  0  0
   15.1595   22.0921   15.0838 N   0  0  0  0  0  0  0  0  0  0  0  0
   14.9974   22.0247   16.3878 C   0  0  0  0  0  0  0  0  0  0  0  0
   16.1752   21.8214   17.0547 N   0  0  0  0  0  0  0  0  0  0  0  0
   16.3794   21.8074   18.4937 C   0  0  1  0  0  0  0  0  0  0  0  0
   15.1559   22.1641   19.3461 C   0  0  2  0  0  0  0  0  0  0  0  0
   14.9027   23.5669   19.3777 O   0  0  0  0  0  0  0  0  0  0  0  0
   15.5439   21.5504   20.6851 C   0  0  2  0  0  0  0  0  0  0  0  0
   16.4446   22.4011   21.3808 O   0  0  0  0  0  0  0  0  0  0  0  0
   15.8730   23.1691   22.6581 P   0  0  0  0  0  5  0  0  0  0  0  0
   15.8115   24.6525   22.5220 O   0  0  0  0  0  0  0  0  0  0  0  0
   14.4466   22.5079   22.9215 O   0  0  0  0  0  0  0  0  0  0  0  0
   16.7214   22.5851   23.8669 O   0  0  0  0  0  0  0  0  0  0  0  0
   16.2958   20.2864   20.2753 C   0  0  2  0  0  0  0  0  0  0  0  0
   16.7489   20.4785   18.9131 O   0  0  0  0  0  0  0  0  0  0  0  0
   15.4160   19.0349   20.3141 C   0  0  0  0  0  0  0  0  0  0  0  0
   15.0474   18.7664   21.6581 O   0  0  0  0  0  0  0  0  0  0  0  0
   13.5383   18.3013   21.9219 P   0  0  2  0  0  5  0  0  0  0  0  0
   12.4879   19.2233   21.3860 O   0  0  0  0  0  0  0  0  0  0  0  0
   13.4415   18.2464   23.5196 O   0  0  0  0  0  0  0  0  0  0  0  0
   13.4058   16.7849   21.4813 O   0  0  0  0  0  0  0  0  0  0  0  0
   14.3655   15.6121   21.9385 P   0  0  1  0  0  5  0  0  0  0  0  0
   15.8247   15.9190   22.0136 O   0  0  0  0  0  0  0  0  0  0  0  0
   13.7974   15.2648   23.4009 O   0  0  0  0  0  0  0  0  0  0  0  0
   13.9411   14.3189   21.0981 O   0  0  0  0  0  0  0  0  0  0  0  0
   14.6152   12.7223   19.3786 C   0  0  0  0  0  0  0  0  0  0  0  0
   14.4390   14.2112   19.7734 C   0  0  0  0  0  0  0  0  0  0  0  0
   15.7878   12.1418   20.1941 C   0  0  0  0  0  0  0  0  0  0  0  0
   14.9729   12.6770   17.8810 C   0  0  0  0  0  0  0  0  0  0  0  0
   13.2948   11.9563   19.6744 C   0  0  1  0  0  0  0  0  0  0  0  0
   12.1686   12.7337   19.2158 O   0  0  0  0  0  0  0  0  0  0  0  0
   13.1779   10.5259   19.0818 C   0  0  0  0  0  0  0  0  0  0  0  0
   12.5353   10.2256   18.0821 O   0  0  0  0  0  0  0  0  0  0  0  0
   13.8709    9.5944   19.8345 N   0  0  0  0  0  0  0  0  0  0  0  0
   13.9122    8.1876   19.4870 C   0  0  0  0  0  0  0  0  0  0  0  0
   15.1959    7.8064   18.7626 C   0  0  0  0  0  0  0  0  0  0  0  0
   15.2583    6.3307   18.4144 C   0  0  0  0  0  0  0  0  0  0  0  0
   14.4274    5.5041   18.7760 O   0  0  0  0  0  0  0  0  0  0  0  0
   16.3238    6.0124   17.5966 N   0  0  0  0  0  0  0  0  0  0  0  0
   17.1131    4.8317   17.8580 C   0  0  0  0  0  0  0  0  0  0  0  0
   16.9872    3.8159   16.7418 C   0  0  0  0  0  0  0  0  0  0  0  0
  1  2  4  0
  2  3  4  0
  3  4  4  0
  4  5  4  0
  1  6  4  0
  5  6  4  0
  6  7  1  0
  5  8  4  0
  8  9  4  0
  4 10  4  0
  9 10  4  0
 11 10  1  6
 11 12  1  0
 12 13  1  1
 12 14  1  0
 14 15  1  6
 15 16  1  0
 16 17  2  0
 16 18  1  0
 16 19  1  0
 14 20  1  0
 11 21  1  0
 20 21  1  0
 20 22  1  6
 22 23  1  0
 24 23  1  0
 24 25  2  0
 24 26  1  1
 24 27  1  0
 28 27  1  0
 28 29  2  0
 28 30  1  1
 28 31  1  0
 31 33  1  0
 32 33  1  0
 32 34  1  0
 32 35  1  0
 32 36  1  0
 36 37  1  6
 36 38  1  0
 38 39  2  0
 38 40  1  0
 40 41  1  0
 41 42  1  0
 42 43  1  0
 43 44  2  0
 43 45  1  0
 45 46  1  0
 46 47  1  0
M  END
