7T3F_EM0_A_201
     RDKit          3D

 24 26  0  0  0  0  0  0  0  0999 V2000
   45.4653   40.4649   71.4431 F   0  0  0  0  0  0  0  0  0  0  0  0
   44.7628   39.9412   72.4664 C   0  0  0  0  0  0  0  0  0  0  0  0
   43.7701   40.6608   73.1221 C   0  0  0  0  0  0  0  0  0  0  0  0
   43.5106   42.0446   72.6461 C   0  0  0  0  0  0  0  0  0  0  0  0
   43.0536   40.1150   74.1722 C   0  0  0  0  0  0  0  0  0  0  0  0
   43.3426   38.8241   74.5669 C   0  0  0  0  0  0  0  0  0  0  0  0
   44.3185   38.1244   73.9181 C   0  0  0  0  0  0  0  0  0  0  0  0
   45.0463   38.6480   72.8682 C   0  0  0  0  0  0  0  0  0  0  0  0
   42.4706   38.0605   75.8987 S   0  0  1  0  0  0  0  0  0  0  0  0
   41.3858   38.9531   76.3961 O   0  0  0  0  0  0  0  0  0  0  0  0
   41.9153   36.7598   75.3695 O   0  0  0  0  0  0  0  0  0  0  0  0
   43.6159   37.7306   77.1483 N   0  0  0  0  0  0  0  0  0  0  0  0
   44.5198   38.7292   77.5708 C   0  0  0  0  0  0  0  0  0  0  0  0
   45.8010   38.7204   77.0332 C   0  0  0  0  0  0  0  0  0  0  0  0
   46.7517   39.6633   77.3919 C   0  0  0  0  0  0  0  0  0  0  0  0
   48.0722   39.5632   76.7652 C   0  0  0  0  0  0  0  0  0  0  0  0
   48.9273   40.6112   77.2480 N   0  0  0  0  0  0  0  0  0  0  0  0
   50.2879   40.6556   76.7210 C   0  0  0  0  0  0  0  0  0  0  0  0
   48.5717   41.6020   78.1856 C   0  0  0  0  0  0  0  0  0  0  0  0
   49.3963   42.4806   78.5454 O   0  0  0  0  0  0  0  0  0  0  0  0
   47.2676   41.6140   78.7349 N   0  0  0  0  0  0  0  0  0  0  0  0
   46.3656   40.6071   78.3047 C   0  0  0  0  0  0  0  0  0  0  0  0
   45.0966   40.6294   78.8479 C   0  0  0  0  0  0  0  0  0  0  0  0
   44.1505   39.6922   78.4919 C   0  0  0  0  0  0  0  0  0  0  0  0
  1  2  1  0
  2  3  2  0
  3  4  1  0
  3  5  1  0
  5  6  2  0
  6  7  1  0
  2  8  1  0
  7  8  2  0
  6  9  1  0
  9 10  2  0
  9 11  2  0
  9 12  1  1
 12 13  1  0
 13 14  2  0
 14 15  1  0
 15 16  1  0
 16 17  1  0
 17 18  1  0
 17 19  1  0
 19 20  2  0
 19 21  1  0
 21 22  1  0
 15 22  2  0
 22 23  1  0
 23 24  2  0
 13 24  1  0
M  END
$$$$
