7OFF_VCB_A_712
     RDKit          3D

 27 30  0  0  0  0  0  0  0  0999 V2000
   34.4659  -25.7673    5.6571 C   0  0  0  0  0  0  0  0  0  0  0  0
   32.8956  -21.2238    7.6674 C   0  0  0  0  0  0  0  0  0  0  0  0
   33.5381  -22.4236    7.4828 C   0  0  0  0  0  0  0  0  0  0  0  0
   34.6820  -22.7238    8.2015 C   0  0  0  0  0  0  0  0  0  0  0  0
   37.4398  -20.9843    9.7839 C   0  0  0  0  0  0  0  0  0  0  0  0
   37.3826  -26.6747    8.5922 C   0  0  0  0  0  0  0  0  0  0  0  0
   37.3096  -27.5401    7.5087 C   0  0  0  0  0  0  0  0  0  0  0  0
   36.3831  -27.3359    6.4982 C   0  0  0  0  0  0  0  0  0  0  0  0
   34.6061  -24.2987    7.4906 C   0  0  0  0  0  0  0  0  0  0  0  0
   34.2709  -23.1956    8.2789 C   0  0  0  0  0  0  0  0  0  0  0  0
   33.2490  -22.3597    7.8528 C   0  0  0  0  0  0  0  0  0  0  0  0
   35.5412  -26.2426    6.5802 C   0  0  0  0  0  0  0  0  0  0  0  0
   32.5823  -22.6011    6.6610 C   0  0  0  0  0  0  0  0  0  0  0  0
   32.9145  -23.6927    5.8677 C   0  0  0  0  0  0  0  0  0  0  0  0
   33.9250  -24.5293    6.2952 C   0  0  0  0  0  0  0  0  0  0  0  0
   35.6131  -25.3523    7.6749 C   0  0  0  0  0  0  0  0  0  0  0  0
   36.5397  -25.5651    8.6854 C   0  0  0  0  0  0  0  0  0  0  0  0
   36.6163  -24.6286    9.8512 C   0  0  0  0  0  0  0  0  0  0  0  0
   36.4180  -22.1379    9.9467 C   0  0  1  0  0  0  0  0  0  0  0  0
   35.1830  -21.8213    9.1237 C   0  0  0  0  0  0  0  0  0  0  0  0
   34.5267  -20.6167    9.3040 C   0  0  0  0  0  0  0  0  0  0  0  0
   33.3897  -20.3130    8.5737 C   0  0  0  0  0  0  0  0  0  0  0  0
   37.0804  -23.3842    9.5761 N   0  0  0  0  0  0  0  0  0  0  0  0
   34.1083  -26.2842    4.6183 O   0  0  0  0  0  0  0  0  0  0  0  0
   38.3857  -21.1603    8.9683 O   0  0  0  0  0  0  0  0  0  0  0  0
   37.2512  -19.9542   10.4459 O   0  0  0  0  0  0  0  0  0  0  0  0
   36.2507  -24.9878   10.9733 O   0  0  0  0  0  0  0  0  0  0  0  0
  2  3  2  0
  3  4  1  0
  6  7  2  0
  7  8  1  0
  9 10  2  0
 10 11  1  0
  1 12  1  0
  8 12  2  0
 11 13  2  0
 13 14  1  0
 14 15  2  0
  9 15  1  0
  1 15  1  0
  9 16  1  0
 12 16  1  0
 16 17  2  0
  6 17  1  0
 17 18  1  0
  5 19  1  0
  4 20  2  0
 19 20  1  0
 20 21  1  0
  2 22  1  0
 21 22  2  0
 19 23  1  6
 18 23  1  0
  1 24  2  0
  5 25  1  0
  5 26  2  0
 18 27  2  0
M  END
