8A2D_KXY_A_1103
     RDKit          3D

 49 56  0  0  0  0  0  0  0  0999 V2000
  -13.3119  -13.7835   22.0174 C   0  0  1  0  0  0  0  0  0  0  0  0
  -13.0877  -14.9266   21.0792 C   0  0  0  0  0  0  0  0  0  0  0  0
  -16.4284  -16.9496   23.8667 C   0  0  0  0  0  0  0  0  0  0  0  0
  -14.0401  -14.1597   23.2335 C   0  0  0  0  0  0  0  0  0  0  0  0
  -15.0385  -15.1024   23.4282 C   0  0  0  0  0  0  0  0  0  0  0  0
  -15.8612  -16.1254   22.7319 C   0  0  0  0  0  0  0  0  0  0  0  0
  -17.6356  -15.6827   25.7714 C   0  0  0  0  0  0  0  0  0  0  0  0
   -9.0094  -11.3475   21.7523 C   0  0  0  0  0  0  0  0  0  0  0  0
  -12.3417  -15.8959   21.4140 O   0  0  0  0  0  0  0  0  0  0  0  0
   -8.8715  -10.9163   20.3588 C   0  0  0  0  0  0  0  0  0  0  0  0
  -13.6063  -15.9057   18.8301 C   0  0  0  0  0  0  0  0  0  0  0  0
    1.6987   -7.4193   17.9102 C   0  0  2  0  0  0  0  0  0  0  0  0
  -13.6618  -17.2020   16.9992 C   0  0  0  0  0  0  0  0  0  0  0  0
  -10.1307  -12.0543   22.1328 C   0  0  0  0  0  0  0  0  0  0  0  0
  -10.2177  -12.4364   23.4620 C   0  0  0  0  0  0  0  0  0  0  0  0
  -11.4178  -13.1173   23.5506 C   0  0  0  0  0  0  0  0  0  0  0  0
   -9.2291  -12.1310   24.3878 C   0  0  0  0  0  0  0  0  0  0  0  0
   -4.6366   -8.9600   21.6786 C   0  0  0  0  0  0  0  0  0  0  0  0
   -4.6952   -7.6057   21.4252 C   0  0  0  0  0  0  0  0  0  0  0  0
   -3.5322   -6.9108   21.1036 C   0  0  0  0  0  0  0  0  0  0  0  0
  -16.4071  -16.0087   25.0453 C   0  0  2  0  0  0  0  0  0  0  0  0
  -15.3741  -15.0601   24.7304 N   0  0  0  0  0  0  0  0  0  0  0  0
  -14.6223  -14.1213   25.3701 C   0  0  0  0  0  0  0  0  0  0  0  0
  -13.8195  -13.5839   24.4536 N   0  0  0  0  0  0  0  0  0  0  0  0
  -16.5497  -16.5280   26.4278 C   0  0  0  0  0  0  0  0  0  0  0  0
  -12.0302  -13.1522   22.3486 N   0  0  0  0  0  0  0  0  0  0  0  0
   -8.0243  -11.0447   22.6797 C   0  0  0  0  0  0  0  0  0  0  0  0
   -8.1066  -11.4224   24.0016 C   0  0  0  0  0  0  0  0  0  0  0  0
   -9.3584  -12.5644   25.8099 C   0  0  2  0  0  0  0  0  0  0  0  0
   -8.6911  -11.6435   26.6062 F   0  0  0  0  0  0  0  0  0  0  0  0
   -8.7597  -13.7971   26.0075 F   0  0  0  0  0  0  0  0  0  0  0  0
   -6.8286  -10.3068   22.3045 C   0  0  0  0  0  0  0  0  0  0  0  0
   -5.8294   -9.7019   22.0120 C   0  0  0  0  0  0  0  0  0  0  0  0
   -2.3449   -7.6078   21.0486 C   0  0  0  0  0  0  0  0  0  0  0  0
   -2.3176   -8.9836   21.3111 C   0  0  0  0  0  0  0  0  0  0  0  0
   -3.4621   -9.6867   21.6312 C   0  0  0  0  0  0  0  0  0  0  0  0
   -1.0375   -6.9915   20.7261 C   0  0  0  0  0  0  0  0  0  0  0  0
  -11.2441  -12.5075   21.5028 N   0  0  0  0  0  0  0  0  0  0  0  0
  -13.7337  -14.8712   19.8357 N   0  0  0  0  0  0  0  0  0  0  0  0
  -12.7084  -17.5040   19.3488 S   0  0  0  0  0  0  0  0  0  0  0  0
  -12.9964  -18.1905   17.6367 C   0  0  0  0  0  0  0  0  0  0  0  0
  -13.8886  -16.1287   17.7308 N   0  0  0  0  0  0  0  0  0  0  0  0
    1.2301   -7.7834   20.2926 C   0  0  0  0  0  0  0  0  0  0  0  0
    2.0004   -6.9670   19.2952 C   0  0  0  0  0  0  0  0  0  0  0  0
    0.6483   -8.4688   17.7705 C   0  0  0  0  0  0  0  0  0  0  0  0
   -0.5354   -8.2291   18.6926 C   0  0  0  0  0  0  0  0  0  0  0  0
   -0.1438   -7.7698   19.9737 N   0  0  0  0  0  0  0  0  0  0  0  0
    2.9860   -8.0050   17.3149 C   0  0  0  0  0  0  0  0  0  0  0  0
    4.0626   -7.1810   17.6606 O   0  0  0  0  0  0  0  0  0  0  0  0
  1  2  1  0
  1  4  1  0
  4  5  2  0
  6  5  1  6
  3  6  1  6
  2  9  2  0
 10  8  1  1
  8 14  1  0
 14 15  1  0
 15 16  2  0
 15 17  1  0
 18 19  2  0
 19 20  1  0
  7 21  1  6
  3 21  1  0
  5 22  1  0
 21 22  1  1
 22 23  1  0
 23 24  2  0
  4 24  1  0
 25  7  1  1
 21 25  1  0
  1 26  1  1
 16 26  1  0
  8 27  2  0
 27 28  1  0
 17 28  2  0
 17 29  1  0
 29 30  1  1
 29 31  1  0
 27 32  1  0
 18 33  1  0
 32 33  3  0
 20 34  2  0
 34 35  1  0
 35 36  2  0
 18 36  1  0
 34 37  1  0
 14 38  2  0
 26 38  1  0
  2 39  1  0
 11 39  1  0
 11 40  1  0
 13 41  2  0
 40 41  1  0
 11 42  2  0
 13 42  1  0
 12 44  1  0
 44 43  1  6
 12 45  1  0
 45 46  1  6
 43 47  1  1
 46 47  1  6
 37 47  1  6
 12 48  1  1
 48 49  1  6
M  END
$$$$
