7BA0_T5H_A_201
     RDKit          3D

 55 60  0  0  0  0  0  0  0  0999 V2000
  -28.4617   -2.6134   -5.3988 C   0  0  0  0  0  0  0  0  0  0  0  0
  -29.7504   -2.9954   -6.1408 C   0  0  0  0  0  0  0  0  0  0  0  0
  -30.8814   -2.0433   -5.8241 C   0  0  0  0  0  0  0  0  0  0  0  0
  -31.1095   -1.9191   -4.3203 C   0  0  0  0  0  0  0  0  0  0  0  0
  -29.7687   -1.3903   -3.7674 C   0  0  0  0  0  0  0  0  0  0  0  0
  -28.7994   -2.5164   -3.9369 C   0  0  2  0  0  0  0  0  0  0  0  0
  -27.6027   -2.5274   -3.0249 C   0  0  2  0  0  0  0  0  0  0  0  0
  -27.5434   -3.8069   -2.2234 C   0  0  0  0  0  0  0  0  0  0  0  0
  -28.1483   -3.7093   -1.0873 O   0  0  0  0  0  0  0  0  0  0  0  0
  -26.9345   -4.9895   -2.5892 N   0  0  0  0  0  0  0  0  0  0  0  0
  -27.7224   -6.2495   -2.7581 C   0  0  0  0  0  0  0  0  0  0  0  0
  -27.7774   -6.5430   -4.2324 C   0  0  0  0  0  0  0  0  0  0  0  0
  -26.6355   -5.8836   -4.9712 C   0  0  0  0  0  0  0  0  0  0  0  0
  -25.3854   -5.9564   -4.1440 C   0  0  0  0  0  0  0  0  0  0  0  0
  -25.5056   -5.1960   -2.8425 C   0  0  1  0  0  0  0  0  0  0  0  0
  -24.6853   -3.9711   -2.8026 C   0  0  0  0  0  0  0  0  0  0  0  0
  -24.2975   -3.5690   -3.9809 O   0  0  0  0  0  0  0  0  0  0  0  0
  -24.3953   -3.3685   -1.6525 O   0  0  0  0  0  0  0  0  0  0  0  0
  -23.4214   -3.2990   -0.6892 C   0  0  2  0  0  0  0  0  0  0  0  0
  -22.6287   -4.6013   -0.7598 C   0  0  0  0  0  0  0  0  0  0  0  0
  -21.6600   -4.6854   -1.8806 C   0  0  0  0  0  0  0  0  0  0  0  0
  -21.3044   -3.2636   -2.2403 C   0  0  0  0  0  0  0  0  0  0  0  0
  -20.7705   -2.3853   -1.3444 C   0  0  0  0  0  0  0  0  0  0  0  0
  -21.5416   -2.8606   -3.5438 C   0  0  0  0  0  0  0  0  0  0  0  0
  -21.2449   -1.5860   -3.9437 C   0  0  0  0  0  0  0  0  0  0  0  0
  -20.7043   -0.7059   -3.0257 C   0  0  0  0  0  0  0  0  0  0  0  0
  -20.4168    0.5795   -3.4709 O   0  0  0  0  0  0  0  0  0  0  0  0
  -20.4494    0.9035   -4.8293 C   0  0  0  0  0  0  0  0  0  0  0  0
  -20.4580   -1.0806   -1.7222 C   0  0  0  0  0  0  0  0  0  0  0  0
  -19.9193   -0.1540   -0.8635 O   0  0  0  0  0  0  0  0  0  0  0  0
  -19.5690   -0.4284    0.4749 C   0  0  0  0  0  0  0  0  0  0  0  0
  -23.9426   -3.0285    0.6870 C   0  0  0  0  0  0  0  0  0  0  0  0
  -24.2919   -1.8639    1.3135 C   0  0  0  0  0  0  0  0  0  0  0  0
  -24.0814   -4.2406    1.4216 C   0  0  0  0  0  0  0  0  0  0  0  0
  -24.5374   -4.2852    2.6997 C   0  0  0  0  0  0  0  0  0  0  0  0
  -24.8812   -3.1175    3.3151 C   0  0  0  0  0  0  0  0  0  0  0  0
  -24.7777   -1.8591    2.6630 C   0  0  0  0  0  0  0  0  0  0  0  0
  -25.1533   -0.8023    3.3970 O   0  0  0  0  0  0  0  0  0  0  0  0
  -24.8849    0.3897    3.9867 C   0  0  0  0  0  0  0  0  0  0  0  0
  -24.2456    1.4786    3.2057 C   0  0  1  0  0  0  0  0  0  0  0  0
  -23.1933    0.9994    2.4366 O   0  0  0  0  0  0  0  0  0  0  0  0
  -25.2256    2.3305    2.4776 C   0  0  1  0  0  0  0  0  0  0  0  0
  -24.6382    2.8932    1.3188 O   0  0  0  0  0  0  0  0  0  0  0  0
  -26.5406    1.7168    2.1618 C   0  0  0  0  0  0  0  0  0  0  0  0
  -26.9443    1.8907    0.7963 O   0  0  0  0  0  0  0  0  0  0  0  0
  -27.1137    0.8216   -0.1377 C   0  0  0  0  0  0  0  0  0  0  0  0
  -26.1130    0.4219   -0.9943 C   0  0  0  0  0  0  0  0  0  0  0  0
  -24.8159    0.9928   -1.0937 O   0  0  0  0  0  0  0  0  0  0  0  0
  -23.8154    0.8740   -0.1517 C   0  0  0  0  0  0  0  0  0  0  0  0
  -26.2668   -0.6431   -1.9199 C   0  0  0  0  0  0  0  0  0  0  0  0
  -27.4365   -1.3763   -2.0497 C   0  0  0  0  0  0  0  0  0  0  0  0
  -28.4362   -0.9635   -1.1867 C   0  0  0  0  0  0  0  0  0  0  0  0
  -28.2820    0.1019   -0.2602 C   0  0  0  0  0  0  0  0  0  0  0  0
  -29.4688    0.3057    0.4832 O   0  0  0  0  0  0  0  0  0  0  0  0
  -30.5493   -0.5244    0.5922 C   0  0  0  0  0  0  0  0  0  0  0  0
  1  2  1  0
  2  3  1  0
  3  4  1  0
  4  5  1  0
  6  1  1  6
  5  6  1  0
  7  6  1  0
  7  8  1  1
  8  9  2  0
  8 10  1  0
 10 11  1  0
 11 12  1  0
 12 13  1  0
 13 14  1  0
 15 14  1  6
 10 15  1  0
 15 16  1  0
 16 17  2  0
 16 18  1  0
 18 19  1  0
 19 20  1  1
 20 21  1  0
 21 22  1  0
 22 23  2  0
 22 24  1  0
 24 25  2  0
 25 26  1  0
 26 27  1  0
 27 28  1  0
 26 29  2  0
 23 29  1  0
 29 30  1  0
 30 31  1  0
 19 32  1  0
 32 33  2  0
 32 34  1  0
 34 35  2  0
 35 36  1  0
 36 37  2  0
 33 37  1  0
 37 38  1  0
 38 39  1  0
 39 40  1  0
 40 41  1  6
 40 42  1  0
 42 43  1  6
 42 44  1  0
 44 45  1  0
 45 46  1  0
 46 47  2  0
 47 48  1  0
 48 49  1  0
 47 50  1  0
  7 51  1  0
 50 51  2  0
 51 52  1  0
 52 53  2  0
 46 53  1  0
 53 54  1  0
 54 55  1  0
M  END
$$$$
