8BRO_R7E_A_201
     RDKit          3D

 26 28  0  0  0  0  0  0  0  0999 V2000
    8.6924    9.5642    7.6961 N   0  0  0  0  0  0  0  0  0  0  0  0
    9.8414   13.5813    7.2476 C   0  0  2  0  0  0  0  0  0  0  0  0
    9.5231   12.5934    6.1588 C   0  0  2  0  0  0  0  0  0  0  0  0
    9.1093   13.2264    4.8623 C   0  0  0  0  0  0  0  0  0  0  0  0
    8.1077    8.7884    6.6409 C   0  0  0  0  0  0  0  0  0  0  0  0
    7.1545    7.7167    6.9647 C   0  0  0  0  0  0  0  0  0  0  0  0
    5.7615    6.0432    6.7112 C   0  0  0  0  0  0  0  0  0  0  0  0
    4.4630    4.5599    8.9257 C   0  0  0  0  0  0  0  0  0  0  0  0
    3.8451    4.4551   11.2192 C   0  0  0  0  0  0  0  0  0  0  0  0
    5.2391    6.2654   10.4172 C   0  0  0  0  0  0  0  0  0  0  0  0
    9.3725   10.8064    7.4703 C   0  0  1  0  0  0  0  0  0  0  0  0
    8.6182   11.6658    6.6389 O   0  0  0  0  0  0  0  0  0  0  0  0
   10.4958   12.7847    8.3639 C   0  0  1  0  0  0  0  0  0  0  0  0
   10.7829   13.5816    9.4693 O   0  0  0  0  0  0  0  0  0  0  0  0
    9.7284   11.5441    8.7213 C   0  0  2  0  0  0  0  0  0  0  0  0
   10.5651   10.7665    9.5164 O   0  0  0  0  0  0  0  0  0  0  0  0
    8.7362   14.2897    7.6758 O   0  0  0  0  0  0  0  0  0  0  0  0
    8.4464    9.0703    5.4806 O   0  0  0  0  0  0  0  0  0  0  0  0
    6.7230    7.3866    8.1569 O   0  0  0  0  0  0  0  0  0  0  0  0
    5.8978    6.3990    8.0333 C   0  0  0  0  0  0  0  0  0  0  0  0
    6.5863    6.9072    6.0036 C   0  0  0  0  0  0  0  0  0  0  0  0
    5.1890    5.7306    9.1410 C   0  0  0  0  0  0  0  0  0  0  0  0
    4.5653    5.6262   11.4596 C   0  0  0  0  0  0  0  0  0  0  0  0
    3.7921    3.9133    9.9359 C   0  0  0  0  0  0  0  0  0  0  0  0
    3.0276    2.6622    9.6582 C   0  0  0  0  0  0  0  0  0  0  0  0
    1.6784    3.0358    9.2955 N   0  0  0  0  0  0  0  0  0  0  0  0
  2  3  1  0
  4  3  1  6
  1  5  1  0
  5  6  1  0
 11  1  1  1
  3 12  1  1
 11 12  1  0
  2 13  1  0
 13 14  1  1
 13 15  1  0
 11 15  1  0
 15 16  1  1
  2 17  1  1
  5 18  2  0
  6 19  1  0
 19 20  1  0
  7 20  2  0
  6 21  2  0
  7 21  1  0
 20 22  1  0
 10 22  1  0
  8 22  2  0
 10 23  2  0
  9 23  1  0
  8 24  1  0
  9 24  2  0
 24 25  1  0
 25 26  1  1
M  END
$$$$
