6TW7_NZB_AAA_1003
     RDKit          3D

 29 32  0  0  0  0  0  0  0  0999 V2000
    4.5674   78.3938   62.8530 C   0  0  0  0  0  0  0  0  0  0  0  0
    5.7887   79.1489   63.2441 C   0  0  0  0  0  0  0  0  0  0  0  0
    5.6022   80.7440   61.4448 C   0  0  0  0  0  0  0  0  0  0  0  0
    3.4635   78.8727   62.2511 N   0  0  0  0  0  0  0  0  0  0  0  0
    3.3557   74.4098   63.1558 C   0  0  0  0  0  0  0  0  0  0  0  0
    2.6134   75.4320   62.6018 C   0  0  0  0  0  0  0  0  0  0  0  0
    3.0863   76.7299   62.5386 C   0  0  0  0  0  0  0  0  0  0  0  0
    4.6025   74.7262   63.6523 C   0  0  0  0  0  0  0  0  0  0  0  0
    5.4030   75.4792   67.4724 C   0  0  0  0  0  0  0  0  0  0  0  0
    4.5516   76.6884   67.7361 C   0  0  0  0  0  0  0  0  0  0  0  0
    4.7259   77.4088   68.9845 C   0  0  0  0  0  0  0  0  0  0  0  0
    5.8265   73.8262   65.6346 C   0  0  0  0  0  0  0  0  0  0  0  0
    6.6641   72.8270   66.0717 C   0  0  0  0  0  0  0  0  0  0  0  0
    3.7009   78.1298   69.5725 C   0  0  0  0  0  0  0  0  0  0  0  0
    5.4860   73.7333   64.2619 C   0  0  0  0  0  0  0  0  0  0  0  0
    4.3491   77.0445   63.0427 C   0  0  0  0  0  0  0  0  0  0  0  0
    5.0954   76.0248   63.5981 C   0  0  0  0  0  0  0  0  0  0  0  0
    7.1426   71.8135   65.2663 C   0  0  0  0  0  0  0  0  0  0  0  0
    6.7930   71.7521   63.9400 C   0  0  0  0  0  0  0  0  0  0  0  0
    5.9576   72.7313   63.4588 C   0  0  0  0  0  0  0  0  0  0  0  0
    2.5932   77.8849   62.0685 N   0  0  0  0  0  0  0  0  0  0  0  0
    7.9757   70.8506   65.7775 F   0  0  0  0  0  0  0  0  0  0  0  0
    5.5666   80.5314   62.8604 N   0  0  0  0  0  0  0  0  0  0  0  0
    4.3717   81.0628   63.4835 C   0  0  0  0  0  0  0  0  0  0  0  0
    5.3053   74.8494   66.2992 O   0  0  0  0  0  0  0  0  0  0  0  0
    5.9368   77.4167   69.6642 C   0  0  0  0  0  0  0  0  0  0  0  0
    6.1194   78.0769   70.8204 N   0  0  0  0  0  0  0  0  0  0  0  0
    5.0935   78.7675   71.3593 C   0  0  0  0  0  0  0  0  0  0  0  0
    3.8555   78.8110   70.7467 C   0  0  0  0  0  0  0  0  0  0  0  0
  1  2  1  0
  1  4  1  0
  5  6  2  0
  6  7  1  0
  5  8  1  0
  9 10  1  0
 10 11  1  0
 12 13  2  0
 11 14  2  0
  8 15  1  0
 12 15  1  0
  7 16  1  0
  1 16  2  0
 16 17  1  0
  8 17  2  0
 13 18  1  0
 18 19  2  0
 19 20  1  0
 15 20  2  0
  7 21  2  0
  4 21  1  0
 18 22  1  0
  3 23  1  0
  2 23  1  0
 23 24  1  0
 12 25  1  0
  9 25  1  0
 11 26  1  0
 26 27  2  0
 27 28  1  0
 14 29  1  0
 28 29  2  0
M  END
$$$$
