
     RDKit          3D

 38 40  0  0  0  0  0  0  0  0999 V2000
  -19.2113  -22.9596   20.4038 N   0  0  0  0  0  0  0  0  0  0  0  0
  -17.8875  -23.2614   20.5692 C   0  0  0  0  0  0  0  0  0  0  0  0
  -17.1116  -23.2570   19.4167 N   0  0  0  0  0  0  0  0  0  0  0  0
  -19.8200  -22.6447   19.2266 C   0  0  0  0  0  0  0  0  0  0  0  0
  -18.9584  -22.6837   18.0341 C   0  0  0  0  0  0  0  0  0  0  0  0
  -17.6647  -22.9824   18.1806 C   0  0  0  0  0  0  0  0  0  0  0  0
   -7.0516  -20.3464   14.2579 O   0  0  0  0  0  0  0  0  0  0  0  0
   -8.1405  -20.0073   13.8141 C   0  0  0  0  0  0  0  0  0  0  0  0
   -9.0151  -20.9483   13.0313 C   0  0  0  0  0  0  0  0  0  0  0  0
   -8.6741  -18.7512   13.9682 N   0  0  0  0  0  0  0  0  0  0  0  0
   -8.4259  -17.9432   15.1770 C   0  0  1  0  0  0  0  0  0  0  0  0
   -7.6358  -16.6820   14.7826 C   0  0  2  0  0  0  0  0  0  0  0  0
   -6.4433  -17.0589   14.0641 O   0  0  0  0  0  0  0  0  0  0  0  0
   -7.2714  -15.8291   16.0192 C   0  0  2  0  0  0  0  0  0  0  0  0
   -5.9638  -16.2290   16.5820 N   0  0  0  0  0  0  0  0  0  0  0  0
   -8.4000  -15.9141   17.0736 C   0  0  1  0  0  0  0  0  0  0  0  0
   -8.5275  -14.6224   17.8720 C   0  0  0  0  0  0  0  0  0  0  0  0
   -9.6458  -16.1711   16.4215 O   0  0  0  0  0  0  0  0  0  0  0  0
   -9.7282  -17.5131   15.9160 C   0  0  2  0  0  0  0  0  0  0  0  0
  -10.0155  -18.4022   16.9771 O   0  0  0  0  0  0  0  0  0  0  0  0
  -11.5482  -18.5117   17.4300 P   0  0  2  0  0  5  0  0  0  0  0  0
  -12.2549  -17.2104   17.5933 O   0  0  0  0  0  0  0  0  0  0  0  0
  -11.4309  -19.3308   18.7986 O   0  0  0  0  0  0  0  0  0  0  0  0
  -12.2048  -19.5312   16.4180 O   0  0  0  0  0  0  0  0  0  0  0  0
  -11.7344  -21.0163   16.1698 P   0  0  1  0  0  5  0  0  0  0  0  0
  -11.9873  -21.1852   14.5894 O   0  0  0  0  0  0  0  0  0  0  0  0
  -10.3340  -21.3647   16.5400 O   0  0  0  0  0  0  0  0  0  0  0  0
  -12.8813  -21.9576   16.7878 O   0  0  0  0  0  0  0  0  0  0  0  0
  -13.6628  -21.4611   17.8585 C   0  0  0  0  0  0  0  0  0  0  0  0
  -13.6796  -22.4750   19.0021 C   0  0  1  0  0  0  0  0  0  0  0  0
  -14.9301  -22.3182   19.7164 O   0  0  0  0  0  0  0  0  0  0  0  0
  -13.6097  -23.9211   18.5152 C   0  0  1  0  0  0  0  0  0  0  0  0
  -13.0093  -24.7507   19.5210 O   0  0  0  0  0  0  0  0  0  0  0  0
  -15.0740  -24.3025   18.3889 C   0  0  1  0  0  0  0  0  0  0  0  0
  -15.2132  -25.7239   18.4288 O   0  0  0  0  0  0  0  0  0  0  0  0
  -15.6809  -23.5400   19.5818 C   0  0  2  0  0  0  0  0  0  0  0  0
  -17.4377  -23.5333   21.6834 O   0  0  0  0  0  0  0  0  0  0  0  0
  -21.0062  -22.3547   19.1406 O   0  0  0  0  0  0  0  0  0  0  0  0
  1  2  4  0
  2  3  4  0
  1  4  4  0
  4  5  4  0
  3  6  4  0
  5  6  4  0
  7  8  2  0
  8  9  1  0
  8 10  1  0
 11 10  1  6
 11 12  1  0
 12 13  1  1
 12 14  1  0
 14 15  1  1
 14 16  1  0
 16 17  1  6
 16 18  1  0
 11 19  1  0
 18 19  1  0
 19 20  1  1
 20 21  1  0
 21 22  2  0
 21 23  1  1
 21 24  1  0
 24 25  1  0
 25 26  1  6
 25 27  2  0
 25 28  1  0
 28 29  1  0
 30 29  1  6
 30 31  1  0
 30 32  1  0
 32 33  1  1
 32 34  1  0
 34 35  1  1
 36  3  1  6
 31 36  1  0
 34 36  1  0
  2 37  2  0
  4 38  2  0
M  END
