6M2B_EZO_A_403
     RDKit          3D

 39 41  0  0  0  0  0  0  0  0999 V2000
   33.3760  -22.6633   16.8571 C   0  0  0  0  0  0  0  0  0  0  0  0
   34.4506  -22.1523   17.5803 C   0  0  0  0  0  0  0  0  0  0  0  0
   34.2232  -21.3539   18.7015 C   0  0  0  0  0  0  0  0  0  0  0  0
   32.9106  -21.0571   19.1222 C   0  0  0  0  0  0  0  0  0  0  0  0
   31.8150  -21.6086   18.4027 C   0  0  0  0  0  0  0  0  0  0  0  0
   32.0687  -22.3940   17.2625 C   0  0  0  0  0  0  0  0  0  0  0  0
   30.4074  -21.4319   18.8304 C   0  0  0  0  0  0  0  0  0  0  0  0
   32.7109  -20.1197   20.2538 C   0  0  0  0  0  0  0  0  0  0  0  0
   32.4940  -19.0435   23.0008 C   0  0  0  0  0  0  0  0  0  0  0  0
   30.0971  -20.6603   19.9468 O   0  0  0  0  0  0  0  0  0  0  0  0
   29.4817  -22.0251   18.2133 O   0  0  0  0  0  0  0  0  0  0  0  0
   33.7025  -19.8066   21.0344 N   0  0  0  0  0  0  0  0  0  0  0  0
   33.6243  -18.9116   22.1226 N   0  0  0  0  0  0  0  0  0  0  0  0
   31.4891  -19.9155   22.7693 N   0  0  0  0  0  0  0  0  0  0  0  0
   30.5240  -19.8614   23.7284 C   0  0  0  0  0  0  0  0  0  0  0  0
   30.7576  -18.9199   24.7338 C   0  0  0  0  0  0  0  0  0  0  0  0
   32.2173  -18.1528   24.4038 S   0  0  0  0  0  0  0  0  0  0  0  0
   29.3127  -20.7178   23.6748 C   0  0  0  0  0  0  0  0  0  0  0  0
   29.3842  -22.1259   23.8156 C   0  0  0  0  0  0  0  0  0  0  0  0
   28.2165  -22.8959   23.7373 C   0  0  0  0  0  0  0  0  0  0  0  0
   26.9797  -22.2870   23.5219 C   0  0  0  0  0  0  0  0  0  0  0  0
   26.8985  -20.9018   23.3860 C   0  0  0  0  0  0  0  0  0  0  0  0
   28.0543  -20.1212   23.4620 C   0  0  0  0  0  0  0  0  0  0  0  0
   30.8940  -22.9696   24.1533 Cl  0  0  0  0  0  0  0  0  0  0  0  0
   34.6246  -17.8545   22.3227 C   0  0  2  0  0  0  0  0  0  0  0  0
   33.5557  -23.2779   15.9844 H   0  0  0  0  0  0  0  0  0  0  0  0
   35.4638  -22.3651   17.2646 H   0  0  0  0  0  0  0  0  0  0  0  0
   35.0796  -20.9469   19.2251 H   0  0  0  0  0  0  0  0  0  0  0  0
   31.2509  -22.8245   16.6972 H   0  0  0  0  0  0  0  0  0  0  0  0
   31.7328  -19.6938   20.4189 H   0  0  0  0  0  0  0  0  0  0  0  0
   29.1344  -20.5036   20.2201 H   0  0  0  0  0  0  0  0  0  0  0  0
   30.1239  -18.7206   25.5875 H   0  0  0  0  0  0  0  0  0  0  0  0
   28.2659  -23.9715   23.8515 H   0  0  0  0  0  0  0  0  0  0  0  0
   26.0826  -22.8897   23.4631 H   0  0  0  0  0  0  0  0  0  0  0  0
   25.9386  -20.4313   23.2167 H   0  0  0  0  0  0  0  0  0  0  0  0
   27.9640  -19.0502   23.3325 H   0  0  0  0  0  0  0  0  0  0  0  0
   35.6396  -18.2991   22.3893 H   0  0  0  0  0  0  0  0  0  0  0  0
   34.4581  -17.3040   23.2703 H   0  0  0  0  0  0  0  0  0  0  0  0
   34.5843  -17.1377   21.4762 H   0  0  0  0  0  0  0  0  0  0  0  0
  1  2  2  0
  2  3  1  0
  3  4  2  0
  4  5  1  0
  1  6  1  0
  5  6  2  0
  5  7  1  0
  4  8  1  0
  7 10  1  0
  7 11  2  0
  8 12  2  0
  9 13  1  0
 12 13  1  0
  9 14  2  0
 14 15  1  0
 15 16  2  0
 16 17  1  0
  9 17  1  0
 15 18  1  0
 18 19  2  0
 19 20  1  0
 20 21  2  0
 21 22  1  0
 22 23  2  0
 18 23  1  0
 19 24  1  0
 13 25  1  0
  1 26  1  0
  2 27  1  0
  3 28  1  0
  6 29  1  0
  8 30  1  0
 10 31  1  0
 16 32  1  0
 20 33  1  0
 21 34  1  0
 22 35  1  0
 23 36  1  0
 25 37  1  1
 25 38  1  0
 25 39  1  0
M  END
