7PGX_FMN_AAA_618
     RDKit          3D

 52 54  0  0  0  0  0  0  0  0999 V2000
  -21.8626    1.4979   -9.4568 N   0  0  0  0  0  0  0  0  0  0  0  0
  -22.8135    2.3612   -9.9024 C   0  0  0  0  0  0  0  0  0  0  0  0
  -23.9750    1.9353  -10.1366 O   0  0  0  0  0  0  0  0  0  0  0  0
  -22.5201    3.6793  -10.0977 N   0  0  0  0  0  0  0  0  0  0  0  0
  -21.2771    4.1784   -9.8529 C   0  0  0  0  0  0  0  0  0  0  0  0
  -21.0410    5.4025  -10.0421 O   0  0  0  0  0  0  0  0  0  0  0  0
  -20.2727    3.3298   -9.3912 C   0  0  0  0  0  0  0  0  0  0  0  0
  -19.0260    3.7684   -9.1221 N   0  0  0  0  0  0  0  0  0  0  0  0
  -18.0732    2.9236   -8.6564 C   0  0  0  0  0  0  0  0  0  0  0  0
  -16.8035    3.4370   -8.3825 C   0  0  0  0  0  0  0  0  0  0  0  0
  -15.7863    2.6172   -7.8800 C   0  0  0  0  0  0  0  0  0  0  0  0
  -14.4340    3.2159   -7.5904 C   0  0  1  0  0  0  0  0  0  0  0  0
  -16.0607    1.2589   -7.6151 C   0  0  0  0  0  0  0  0  0  0  0  0
  -15.0013    0.3478   -7.0478 C   0  0  2  0  0  0  0  0  0  0  0  0
  -17.3324    0.7360   -7.9057 C   0  0  0  0  0  0  0  0  0  0  0  0
  -18.3637    1.5457   -8.4422 C   0  0  0  0  0  0  0  0  0  0  0  0
  -19.6249    1.0477   -8.7443 N   0  0  0  0  0  0  0  0  0  0  0  0
  -20.5950    1.9122   -9.1901 C   0  0  0  0  0  0  0  0  0  0  0  0
  -19.9772   -0.3841   -8.5891 C   0  0  1  0  0  0  0  0  0  0  0  0
  -19.9921   -0.7962   -7.1007 C   0  0  2  0  0  0  0  0  0  0  0  0
  -20.2271    0.3151   -6.2743 O   0  0  0  0  0  0  0  0  0  0  0  0
  -18.6951   -1.5271   -6.6586 C   0  0  2  0  0  0  0  0  0  0  0  0
  -19.0318   -2.7451   -6.0416 O   0  0  0  0  0  0  0  0  0  0  0  0
  -17.7471   -0.7173   -5.7283 C   0  0  2  0  0  0  0  0  0  0  0  0
  -17.9946   -1.0566   -4.3850 O   0  0  0  0  0  0  0  0  0  0  0  0
  -17.8326    0.8090   -5.9217 C   0  0  1  0  0  0  0  0  0  0  0  0
  -18.7970    1.0984   -6.9070 O   0  0  0  0  0  0  0  0  0  0  0  0
  -18.9212   -0.2444   -7.9519 P   0  0  2  0  0  5  0  0  0  0  0  0
  -18.2329   -1.4426   -7.3362 O   0  0  0  0  0  0  0  0  0  0  0  0
  -18.1706    0.1316   -9.4207 O   0  0  0  0  0  0  0  0  0  0  0  0
  -20.5480   -0.6126   -8.2434 O   0  0  0  0  0  0  0  0  0  0  0  0
  -23.2691    4.3227  -10.4426 H   0  0  0  0  0  0  0  0  0  0  0  0
  -16.6113    4.4889   -8.5618 H   0  0  0  0  0  0  0  0  0  0  0  0
  -14.5194    4.2580   -7.2151 H   0  0  0  0  0  0  0  0  0  0  0  0
  -13.9146    2.6090   -6.8196 H   0  0  0  0  0  0  0  0  0  0  0  0
  -13.8203    3.2414   -8.5149 H   0  0  0  0  0  0  0  0  0  0  0  0
  -13.9958    0.7666   -7.2614 H   0  0  0  0  0  0  0  0  0  0  0  0
  -15.0545   -0.6709   -7.4871 H   0  0  0  0  0  0  0  0  0  0  0  0
  -15.1320    0.2448   -5.9503 H   0  0  0  0  0  0  0  0  0  0  0  0
  -17.4956   -0.3033   -7.6771 H   0  0  0  0  0  0  0  0  0  0  0  0
  -20.9816   -0.5793   -9.0254 H   0  0  0  0  0  0  0  0  0  0  0  0
  -19.3146   -1.0305   -9.1940 H   0  0  0  0  0  0  0  0  0  0  0  0
  -20.8207   -1.5321   -6.9653 H   0  0  0  0  0  0  0  0  0  0  0  0
  -20.0971    1.1273   -6.8305 H   0  0  0  0  0  0  0  0  0  0  0  0
  -18.1088   -1.7454   -7.5830 H   0  0  0  0  0  0  0  0  0  0  0  0
  -19.0719   -3.4323   -6.7574 H   0  0  0  0  0  0  0  0  0  0  0  0
  -16.7009   -1.0236   -5.9378 H   0  0  0  0  0  0  0  0  0  0  0  0
  -17.1183   -1.1988   -3.9402 H   0  0  0  0  0  0  0  0  0  0  0  0
  -18.1286    1.2709   -4.9553 H   0  0  0  0  0  0  0  0  0  0  0  0
  -16.8339    1.1910   -6.2314 H   0  0  0  0  0  0  0  0  0  0  0  0
  -17.2939   -0.3274   -9.3809 H   0  0  0  0  0  0  0  0  0  0  0  0
  -20.5794   -1.6015   -8.2874 H   0  0  0  0  0  0  0  0  0  0  0  0
  1  2  1  0
  2  3  2  0
  2  4  1  0
  4  5  1  0
  5  6  2  0
  5  7  1  0
  7  8  2  0
  8  9  1  0
  9 10  1  0
 10 11  2  0
 11 12  1  0
 11 13  1  0
 13 14  1  0
 13 15  2  0
  9 16  2  0
 15 16  1  0
 16 17  1  0
  1 18  2  0
  7 18  1  0
 17 18  1  0
 17 19  1  0
 19 20  1  0
 20 21  1  0
 20 22  1  0
 22 23  1  0
 22 24  1  0
 24 25  1  0
 24 26  1  0
 26 27  1  0
 28 27  1  1
 28 29  2  0
 28 30  1  0
 28 31  1  0
  4 32  1  0
 10 33  1  0
 12 34  1  1
 12 35  1  0
 12 36  1  0
 14 37  1  1
 14 38  1  0
 14 39  1  0
 15 40  1  0
 19 41  1  6
 19 42  1  0
 20 43  1  6
 21 44  1  0
 22 45  1  6
 23 46  1  0
 24 47  1  6
 25 48  1  0
 26 49  1  1
 26 50  1  0
 30 51  1  0
 31 52  1  0
M  END
