7Q2B_M6H_A_401
     RDKit          3D

 12 13  0  0  0  0  0  0  0  0999 V2000
  -31.2720  -12.8602   10.2767 C   0  0  0  0  0  0  0  0  0  0  0  0
  -30.2718  -12.0431   10.7611 C   0  0  0  0  0  0  0  0  0  0  0  0
  -31.4027  -14.1808   10.7083 C   0  0  0  0  0  0  0  0  0  0  0  0
  -29.4002  -12.5688   11.6880 C   0  0  0  0  0  0  0  0  0  0  0  0
  -30.4998  -14.6496   11.6375 C   0  0  0  0  0  0  0  0  0  0  0  0
  -25.6252  -14.3197   13.9036 C   0  0  0  0  0  0  0  0  0  0  0  0
  -25.2292  -13.7224   12.5526 C   0  0  0  0  0  0  0  0  0  0  0  0
  -28.5140  -14.3860   13.1533 C   0  0  0  0  0  0  0  0  0  0  0  0
  -27.2567  -14.8617   12.4479 C   0  0  2  0  0  0  0  0  0  0  0  0
  -29.4794  -13.8679   12.1529 C   0  0  0  0  0  0  0  0  0  0  0  0
  -26.4078  -15.4619   13.4586 N   0  0  0  0  0  0  0  0  0  0  0  0
  -26.5189  -13.7568   11.8789 N   0  0  0  0  0  0  0  0  0  0  0  0
  1  2  2  0
  1  3  1  0
  2  4  1  0
  3  5  2  0
  6  7  1  0
  8  9  1  0
  4 10  2  0
  8 10  1  1
  5 10  1  0
  6 11  1  6
  9 11  1  1
  9 12  1  0
  7 12  1  6
M  END
$$$$
