8F8E_XJI_A_1401
     RDKit          3D

 43 45  0  0  0  0  0  0  0  0999 V2000
    0.4740   -0.6357    2.7755 N   0  0  0  0  0  0  0  0  0  0  0  0
   -4.4770    0.5942    3.4358 C   0  0  0  0  0  0  0  0  0  0  0  0
   -4.3613   -0.0025    2.1785 C   0  0  0  0  0  0  0  0  0  0  0  0
   -2.6635   -1.6776   -0.0959 N   0  0  0  0  0  0  0  0  0  0  0  0
   -3.1194   -0.4560    1.7301 C   0  0  0  0  0  0  0  0  0  0  0  0
   -4.0852   -4.7666    2.4610 O   0  0  0  0  0  0  0  0  0  0  0  0
   -0.3390   -1.2739    0.7975 C   0  0  0  0  0  0  0  0  0  0  0  0
   -2.1041    0.2776    3.8064 C   0  0  0  0  0  0  0  0  0  0  0  0
   -3.3486    0.7372    4.2470 C   0  0  0  0  0  0  0  0  0  0  0  0
   -2.3465   -4.4318    3.9686 N   0  0  0  0  0  0  0  0  0  0  0  0
   -1.9819   -0.3322    2.5466 C   0  0  0  0  0  0  0  0  0  0  0  0
   -0.6572   -0.7666    2.0528 C   0  0  0  0  0  0  0  0  0  0  0  0
    1.0331   -1.4283    0.8214 C   0  0  0  0  0  0  0  0  0  0  0  0
   -2.9652   -4.2395    2.6964 C   0  0  0  0  0  0  0  0  0  0  0  0
   -2.2985   -3.3981    1.6499 C   0  0  0  0  0  0  0  0  0  0  0  0
   -3.3059   -2.4486    0.9741 C   0  0  1  0  0  0  0  0  0  0  0  0
   -3.9009   -1.5048    1.9970 C   0  0  0  0  0  0  0  0  0  0  0  0
   -4.6423   -2.0021    3.0837 C   0  0  0  0  0  0  0  0  0  0  0  0
   -5.1978   -1.1250    4.0191 C   0  0  0  0  0  0  0  0  0  0  0  0
   -5.0212    0.2550    3.8808 C   0  0  0  0  0  0  0  0  0  0  0  0
   -5.5633    1.0966    4.7960 F   0  0  0  0  0  0  0  0  0  0  0  0
   -4.2915    0.7621    2.7998 C   0  0  0  0  0  0  0  0  0  0  0  0
   -4.0623    2.4907    2.6140 Cl  0  0  0  0  0  0  0  0  0  0  0  0
   -3.7377   -0.1145    1.8596 C   0  0  0  0  0  0  0  0  0  0  0  0
   -1.2431   -1.6858   -0.2929 C   0  0  0  0  0  0  0  0  0  0  0  0
   -0.7634   -2.0351   -1.4056 O   0  0  0  0  0  0  0  0  0  0  0  0
    1.4860   -1.0392    2.0245 N   0  0  0  0  0  4  0  0  0  0  0  0
   -6.0291    1.1900    3.9801 Cl  0  0  0  0  0  0  0  0  0  0  0  0
   -1.0212    0.4289    4.6138 F   0  0  0  0  0  0  0  0  0  0  0  0
   -5.2288   -0.1003    1.5395 H   0  0  0  0  0  0  0  0  0  0  0  0
   -3.2592   -1.1512   -0.7733 H   0  0  0  0  0  0  0  0  0  0  0  0
   -3.0437   -0.8833    0.7355 H   0  0  0  0  0  0  0  0  0  0  0  0
   -3.4338    1.2076    5.2168 H   0  0  0  0  0  0  0  0  0  0  0  0
   -2.8315   -4.9821    4.7143 H   0  0  0  0  0  0  0  0  0  0  0  0
   -1.4190   -4.0048    4.1790 H   0  0  0  0  0  0  0  0  0  0  0  0
    1.6568   -1.8337    0.0367 H   0  0  0  0  0  0  0  0  0  0  0  0
   -1.4876   -2.8082    2.1262 H   0  0  0  0  0  0  0  0  0  0  0  0
   -1.8241   -4.0593    0.8945 H   0  0  0  0  0  0  0  0  0  0  0  0
   -4.1108   -3.0760    0.5274 H   0  0  0  0  0  0  0  0  0  0  0  0
   -4.7887   -3.0687    3.2053 H   0  0  0  0  0  0  0  0  0  0  0  0
   -5.7670   -1.5169    4.8526 H   0  0  0  0  0  0  0  0  0  0  0  0
   -3.1803    0.2882    1.0237 H   0  0  0  0  0  0  0  0  0  0  0  0
    2.4801   -1.0572    2.3409 H   0  0  0  0  0  0  0  0  0  0  0  0
  2  3  4  0
  3  5  4  0
  2  9  4  0
  8  9  4  0
  8 11  4  0
  5 11  4  0
 11 12  1  0
  7 12  4  0
  1 12  4  0
  7 13  4  0
  6 14  2  0
 10 14  1  0
 14 15  1  0
 16 15  1  0
  4 16  1  0
 16 17  1  0
 17 18  4  0
 18 19  4  0
 19 20  4  0
 20 21  1  0
 20 22  4  0
 22 23  1  0
 17 24  4  0
 22 24  4  0
  4 25  1  0
  7 25  1  0
 25 26  2  0
  1 27  4  0
 13 27  4  0
  2 28  1  0
  8 29  1  0
  3 30  1  0
  4 31  1  0
  5 32  1  0
  9 33  1  0
 10 34  1  0
 10 35  1  0
 13 36  1  0
 15 37  1  0
 15 38  1  0
 16 39  1  6
 18 40  1  0
 19 41  1  0
 24 42  1  0
 27 43  1  0
M  CHG  1  27   1
M  END
