7AN5_RDH_A_301
     RDKit          3D

 15 15  0  0  0  0  0  0  0  0999 V2000
   16.6274   -5.5303   17.4024 C   0  0  0  0  0  0  0  0  0  0  0  0
   15.5762   -4.7515   17.2622 C   0  0  0  0  0  0  0  0  0  0  0  0
   13.7771   -3.7612   18.5445 C   0  0  0  0  0  0  0  0  0  0  0  0
   12.8859   -4.8144   18.6658 C   0  0  0  0  0  0  0  0  0  0  0  0
   11.5403   -4.5540   18.8853 C   0  0  0  0  0  0  0  0  0  0  0  0
   11.0895   -3.2511   18.9947 C   0  0  0  0  0  0  0  0  0  0  0  0
   11.9871   -2.1983   18.8799 C   0  0  0  0  0  0  0  0  0  0  0  0
   11.5174   -0.7486   19.0003 C   0  0  0  0  0  0  0  0  0  0  0  0
   13.3301   -2.4553   18.6604 C   0  0  0  0  0  0  0  0  0  0  0  0
   14.9015   -4.6595   15.8990 C   0  0  0  0  0  0  0  0  0  0  0  0
   15.1417   -3.9884   18.3482 O   0  0  0  0  0  0  0  0  0  0  0  0
   10.3078   -0.4775   19.2437 O   0  0  0  0  0  0  0  0  0  0  0  0
   12.3490    0.1821   18.8553 O   0  0  0  0  0  0  0  0  0  0  0  0
   15.4603   -5.1854   14.9100 O   0  0  0  0  0  0  0  0  0  0  0  0
   13.8214   -4.0383   15.7520 O   0  0  0  0  0  0  0  0  0  0  0  0
  1  2  2  0
  3  4  2  0
  4  5  1  0
  5  6  2  0
  6  7  1  0
  7  8  1  0
  3  9  1  0
  7  9  2  0
  2 10  1  0
  2 11  1  0
  3 11  1  0
  8 12  1  0
  8 13  2  0
 10 14  2  0
 10 15  1  0
M  END
