
     RDKit          3D

 22 22  0  0  0  0  0  0  0  0999 V2000
   13.2672   22.4311   13.0636 C   0  0  1  0  0  0  0  0  0  0  0  0
   13.9655   21.2296   13.7237 C   0  0  2  0  0  0  0  0  0  0  0  0
   12.8735   20.1797   13.6963 C   0  0  1  0  0  0  0  0  0  0  0  0
   12.2397   20.4640   12.3473 C   0  0  0  0  0  0  0  0  0  0  0  0
   10.8437   19.8614   12.2074 C   0  0  0  0  0  0  0  0  0  0  0  0
   14.1441   23.1664   12.2397 O   0  0  0  0  0  0  0  0  0  0  0  0
   14.3790   21.4521   15.0705 O   0  0  0  0  0  0  0  0  0  0  0  0
   13.3976   18.8653   13.8033 O   0  0  0  0  0  0  0  0  0  0  0  0
   12.1958   21.9086   12.2431 O   0  0  0  0  0  0  0  0  0  0  0  0
   10.9377   18.6774   11.4277 O   0  0  0  0  0  0  0  0  0  0  0  0
   10.9146   18.7774    9.8316 P   0  0  0  0  0  5  0  0  0  0  0  0
   10.8748   17.4901    9.0881 O   0  0  0  0  0  0  0  0  0  0  0  0
    9.6541   19.7184    9.5504 O   0  0  0  0  0  0  0  0  0  0  0  0
   12.1269   19.7405    9.4509 O   0  0  0  0  0  0  0  0  0  0  0  0
   14.2437   24.7405   12.4908 P   0  0  2  0  0  5  0  0  0  0  0  0
   15.6089   25.3422   12.4165 O   0  0  0  0  0  0  0  0  0  0  0  0
   13.6371   24.8867   13.9672 O   0  0  0  0  0  0  0  0  0  0  0  0
   13.1168   25.3933   11.5934 O   0  0  0  0  0  0  0  0  0  0  0  0
   13.3072   25.9573   10.1314 P   0  0  0  0  0  5  0  0  0  0  0  0
   13.8252   25.0003    9.1156 O   0  0  0  0  0  0  0  0  0  0  0  0
   11.9045   26.5858    9.7101 O   0  0  0  0  0  0  0  0  0  0  0  0
   14.2283   27.2505   10.2677 O   0  0  0  0  0  0  0  0  0  0  0  0
  1  2  1  0
  2  3  1  0
  3  4  1  0
  4  5  1  0
  1  6  1  6
  2  7  1  1
  3  8  1  6
  1  9  1  0
  4  9  1  0
  5 10  1  0
 10 11  1  0
 11 12  2  0
 11 13  1  0
 11 14  1  0
  6 15  1  0
 15 16  2  0
 15 17  1  0
 15 18  1  0
 18 19  1  0
 19 20  2  0
 19 21  1  0
 19 22  1  0
M  END
