7P2I_MFU_C_102
     RDKit          3D

 12 12  0  0  0  0  0  0  0  0999 V2000
   14.8543   18.6353   50.1021 C   0  0  2  0  0  0  0  0  0  0  0  0
   13.8943   17.4641   49.9169 C   0  0  2  0  0  0  0  0  0  0  0  0
   12.7965   17.5507   50.9728 C   0  0  1  0  0  0  0  0  0  0  0  0
   12.0986   18.9128   50.9278 C   0  0  1  0  0  0  0  0  0  0  0  0
   13.1488   20.0055   51.1186 C   0  0  2  0  0  0  0  0  0  0  0  0
   12.5972   21.4116   51.0361 C   0  0  0  0  0  0  0  0  0  0  0  0
   15.5229   18.4523   51.3173 O   0  0  0  0  0  0  0  0  0  0  0  0
   14.6099   16.2378   50.0412 O   0  0  0  0  0  0  0  0  0  0  0  0
   11.8721   16.4766   50.8022 O   0  0  0  0  0  0  0  0  0  0  0  0
   11.4653   19.1040   49.6596 O   0  0  0  0  0  0  0  0  0  0  0  0
   14.1465   19.8691   50.0844 O   0  0  0  0  0  0  0  0  0  0  0  0
   16.3785   19.5490   51.6703 C   0  0  0  0  0  0  0  0  0  0  0  0
  1  2  1  0
  2  3  1  0
  3  4  1  0
  4  5  1  0
  5  6  1  6
  1  7  1  1
  2  8  1  1
  3  9  1  6
  4 10  1  6
  1 11  1  0
  5 11  1  0
  7 12  1  0
M  END
