7FB7_8NF_A_304
     RDKit          3D

 19 19  0  0  0  0  0  0  0  0999 V2000
   32.9009   25.1108   48.0299 C   0  0  1  0  0  0  0  0  0  0  0  0
   34.0513   24.1450   47.9405 C   0  0  0  0  0  0  0  0  0  0  0  0
   35.3291   24.6214   47.6067 C   0  0  0  0  0  0  0  0  0  0  0  0
   36.4046   23.7302   47.5214 C   0  0  0  0  0  0  0  0  0  0  0  0
   34.9837   21.9126   48.0874 C   0  0  0  0  0  0  0  0  0  0  0  0
   33.8749   22.7646   48.1855 C   0  0  0  0  0  0  0  0  0  0  0  0
   37.7705   24.2257   47.1666 C   0  0  2  0  0  0  0  0  0  0  0  0
   36.2060   22.4074   47.7622 N   0  0  0  0  0  0  0  0  0  0  0  0
   32.5959   22.2151   48.5305 N   0  0  0  0  0  0  0  0  0  0  0  0
   32.1157   24.8286   47.2974 H   0  0  0  0  0  0  0  0  0  0  0  0
   32.4757   25.0947   49.0553 H   0  0  0  0  0  0  0  0  0  0  0  0
   33.2201   26.1512   47.8071 H   0  0  0  0  0  0  0  0  0  0  0  0
   35.4900   25.6757   47.4142 H   0  0  0  0  0  0  0  0  0  0  0  0
   34.8752   20.8514   48.2702 H   0  0  0  0  0  0  0  0  0  0  0  0
   38.1070   24.9691   47.9196 H   0  0  0  0  0  0  0  0  0  0  0  0
   37.7477   24.7035   46.1647 H   0  0  0  0  0  0  0  0  0  0  0  0
   38.4974   23.3861   47.1449 H   0  0  0  0  0  0  0  0  0  0  0  0
   32.4903   21.1912   48.7071 H   0  0  0  0  0  0  0  0  0  0  0  0
   31.7414   22.8075   48.6159 H   0  0  0  0  0  0  0  0  0  0  0  0
  1  2  1  0
  2  3  2  0
  3  4  1  0
  5  6  2  0
  2  6  1  0
  4  7  1  0
  5  8  1  0
  4  8  2  0
  6  9  1  0
  1 10  1  6
  1 11  1  0
  1 12  1  0
  3 13  1  0
  5 14  1  0
  7 15  1  1
  7 16  1  0
  7 17  1  0
  9 18  1  0
  9 19  1  0
M  END
