8SLG_G5A_B_504
     RDKit          3D

 27 29  0  0  0  0  0  0  0  0999 V2000
  -57.3353   49.4548   33.2412 C   0  0  0  0  0  0  0  0  0  0  0  0
  -56.9286   47.7824   31.5509 N   0  0  0  0  0  0  0  0  0  0  0  0
  -57.8017   50.1110   32.2669 O   0  0  0  0  0  0  0  0  0  0  0  0
  -57.9512   51.6860   34.7434 S   0  0  1  0  0  0  0  0  0  0  0  0
  -49.8467   50.8249   29.1172 N   0  0  0  0  0  0  0  0  0  0  0  0
  -49.6172   51.7189   30.0922 C   0  0  0  0  0  0  0  0  0  0  0  0
  -50.5608   52.1398   30.9547 N   0  0  0  0  0  0  0  0  0  0  0  0
  -51.7946   51.6211   30.8113 C   0  0  0  0  0  0  0  0  0  0  0  0
  -52.0868   50.7023   29.8309 C   0  0  0  0  0  0  0  0  0  0  0  0
  -51.0795   50.3074   28.9748 C   0  0  0  0  0  0  0  0  0  0  0  0
  -51.4096   49.3595   27.9744 N   0  0  0  0  0  0  0  0  0  0  0  0
  -53.3762   50.3956   29.9609 N   0  0  0  0  0  0  0  0  0  0  0  0
  -53.8710   51.0965   30.9841 C   0  0  0  0  0  0  0  0  0  0  0  0
  -52.9023   51.8760   31.5393 N   0  0  0  0  0  0  0  0  0  0  0  0
  -56.8121   48.1069   32.9703 C   0  0  0  0  0  0  0  0  0  0  0  0
  -53.0716   52.7714   32.6689 C   0  0  1  0  0  0  0  0  0  0  0  0
  -59.2955   51.8727   34.1205 O   0  0  0  0  0  0  0  0  0  0  0  0
  -53.5335   54.1427   32.2999 C   0  0  2  0  0  0  0  0  0  0  0  0
  -52.7503   55.0950   32.9802 O   0  0  0  0  0  0  0  0  0  0  0  0
  -58.1404   51.8440   36.2285 O   0  0  0  0  0  0  0  0  0  0  0  0
  -54.8923   54.1990   33.0088 C   0  0  2  0  0  0  0  0  0  0  0  0
  -55.2109   55.5073   33.3577 O   0  0  0  0  0  0  0  0  0  0  0  0
  -57.3484   50.0636   34.5290 N   0  0  0  0  0  0  0  0  0  0  0  0
  -54.5478   53.3605   34.2223 C   0  0  2  0  0  0  0  0  0  0  0  0
  -53.9163   52.2702   33.6274 O   0  0  0  0  0  0  0  0  0  0  0  0
  -55.7520   52.9628   35.0165 C   0  0  0  0  0  0  0  0  0  0  0  0
  -56.7907   52.7079   34.1239 O   0  0  0  0  0  0  0  0  0  0  0  0
  1  3  2  0
  5  6  2  0
  6  7  1  0
  7  8  2  0
  8  9  1  0
  9 10  2  0
  5 10  1  0
 10 11  1  0
  9 12  1  0
 12 13  2  0
 13 14  1  0
  8 14  1  0
  2 15  1  0
  1 15  1  0
 16 14  1  6
  4 17  2  0
 16 18  1  0
 18 19  1  1
  4 20  2  0
 18 21  1  0
 21 22  1  1
  1 23  1  0
  4 23  1  1
 21 24  1  0
 24 25  1  0
 16 25  1  0
 24 26  1  6
  4 27  1  0
 26 27  1  0
M  END
$$$$
