
     RDKit          3D

 26 28  0  0  0  0  0  0  0  0999 V2000
  -11.8903   17.3182  -32.7601 C   0  0  1  0  0  0  0  0  0  0  0  0
  -12.1300   18.1455  -34.0121 C   0  0  2  0  0  0  0  0  0  0  0  0
  -13.1544   19.1783  -33.5182 C   0  0  2  0  0  0  0  0  0  0  0  0
  -12.4884   20.9318  -31.8099 C   0  0  0  0  0  0  0  0  0  0  0  0
  -11.4982   22.3412  -33.0757 C   0  0  0  0  0  0  0  0  0  0  0  0
  -11.9254   21.3200  -33.9072 C   0  0  0  0  0  0  0  0  0  0  0  0
  -13.6017   19.7529  -27.9032 C   0  0  0  0  0  0  0  0  0  0  0  0
  -12.7372   20.5005  -27.5340 C   0  0  0  0  0  0  0  0  0  0  0  0
  -13.3095   16.9240  -30.6915 C   0  0  0  0  0  0  0  0  0  0  0  0
  -14.6499   18.8317  -28.3555 C   0  0  0  0  0  0  0  0  0  0  0  0
  -11.0807   22.2962  -35.7077 C   0  0  0  0  0  0  0  0  0  0  0  0
  -10.8149   23.4064  -33.6856 C   0  0  0  0  0  0  0  0  0  0  0  0
  -13.2965   17.2600  -32.1783 C   0  0  1  0  0  0  0  0  0  0  0  0
  -12.5482   20.4238  -33.0804 N   0  0  0  0  0  0  0  0  0  0  0  0
  -11.8341   22.0748  -31.7653 N   0  0  0  0  0  0  0  0  0  0  0  0
  -11.7497   21.2247  -35.2346 N   0  0  0  0  0  0  0  0  0  0  0  0
  -10.6011   23.3557  -35.0205 N   0  0  0  0  0  0  0  0  0  0  0  0
  -10.3302   24.5009  -32.9834 N   0  0  0  0  0  0  0  0  0  0  0  0
  -11.3675   16.0338  -33.0707 O   0  0  0  0  0  0  0  0  0  0  0  0
  -13.8517   18.5736  -32.3966 O   0  0  0  0  0  0  0  0  0  0  0  0
  -12.7018   17.3112  -35.0351 O   0  0  0  0  0  0  0  0  0  0  0  0
  -14.6499   16.6943  -30.2701 O   0  0  0  0  0  0  0  0  0  0  0  0
  -16.4676   16.3167  -28.5853 O   0  0  0  0  0  0  0  0  0  0  0  0
  -14.3737   17.5369  -27.8600 O   0  0  0  0  0  0  0  0  0  0  0  0
  -14.3066   14.9660  -28.3534 O   0  0  0  0  0  0  0  0  0  0  0  0
  -14.8729   16.2946  -28.7334 P   0  0  2  0  0  5  0  0  0  0  0  0
  1  2  1  0
  2  3  1  0
  5  6  4  0
  7  8  3  0
  7 10  1  0
  5 12  4  0
 13  9  1  1
  1 13  1  0
  4 14  4  0
  6 14  4  0
  3 14  1  1
  4 15  4  0
  5 15  4  0
  6 16  4  0
 11 16  4  0
 12 17  4  0
 11 17  4  0
 12 18  1  0
  1 19  1  6
  3 20  1  0
 13 20  1  0
  2 21  1  6
  9 22  1  0
 10 24  1  0
 25 26  2  0
 24 26  1  0
 22 26  1  0
 26 23  1  6
M  END
