
     RDKit          3D

 23 24  0  0  0  0  0  0  0  0999 V2000
   24.1108  -30.8451  277.7894 C   0  0  0  0  0  0  0  0  0  0  0  0
   25.4755  -30.9993  277.1876 C   0  0  0  0  0  0  0  0  0  0  0  0
   25.7674  -30.7939  275.8846 C   0  0  0  0  0  0  0  0  0  0  0  0
   27.1440  -30.9749  275.2962 C   0  0  0  0  0  0  0  0  0  0  0  0
   24.7067  -30.3319  274.8908 C   0  0  2  0  0  0  0  0  0  0  0  0
   23.9904  -31.3277  272.8122 C   0  0  1  0  0  0  0  0  0  0  0  0
   23.4479  -32.5807  272.0954 C   0  0  1  0  0  0  0  0  0  0  0  0
   24.4842  -33.7005  272.1847 C   0  0  2  0  0  0  0  0  0  0  0  0
   25.8187  -33.2258  271.6016 C   0  0  1  0  0  0  0  0  0  0  0  0
   26.2455  -31.8946  272.2514 C   0  0  1  0  0  0  0  0  0  0  0  0
   27.4916  -31.3161  271.5657 C   0  0  0  0  0  0  0  0  0  0  0  0
   23.5114  -29.6672  275.6168 C   0  0  2  0  0  0  0  0  0  0  0  0
   22.9988  -30.5646  276.7484 C   0  0  2  0  0  0  0  0  0  0  0  0
   24.1468  -29.7580  278.7867 N   0  0  0  0  0  0  0  0  0  0  0  0
   27.4465  -29.9696  274.3389 O   0  0  0  0  0  0  0  0  0  0  0  0
   24.2564  -31.5084  274.2044 O   0  0  0  0  0  0  0  0  0  0  0  0
   22.1749  -32.9949  272.5976 O   0  0  0  0  0  0  0  0  0  0  0  0
   24.0127  -34.8440  271.4501 O   0  0  0  0  0  0  0  0  0  0  0  0
   26.7812  -34.2712  271.7928 O   0  0  0  0  0  0  0  0  0  0  0  0
   27.1360  -30.5078  270.4462 O   0  0  0  0  0  0  0  0  0  0  0  0
   25.2067  -30.9051  272.1713 O   0  0  0  0  0  0  0  0  0  0  0  0
   22.4238  -29.3788  274.7245 O   0  0  0  0  0  0  0  0  0  0  0  0
   21.8824  -29.8965  277.3782 O   0  0  0  0  0  0  0  0  0  0  0  0
  1  2  1  0
  2  3  2  0
  3  4  1  0
  3  5  1  0
  6  7  1  0
  7  8  1  0
  8  9  1  0
  9 10  1  0
 10 11  1  6
  5 12  1  0
 12 13  1  0
  1 13  1  0
  1 14  1  0
  4 15  1  0
  6 16  1  1
  5 16  1  1
  7 17  1  1
  8 18  1  6
  9 19  1  1
 11 20  1  0
 10 21  1  0
  6 21  1  0
 12 22  1  6
 13 23  1  1
M  END
