@<TRIPOS>MOLECULE
1UML_FR4_A_1001
 60 63 0 0 0
SMALL
GASTEIGER

@<TRIPOS>ATOM
      1 C          51.8290   54.6770   20.8590 C.ar    1  UNL1        0.0368
      2 N          51.8880   55.6880   21.9190 N.ar    1  UNL1       -0.3308
      3 C          51.8600   55.1000   23.1260 C.ar    1  UNL1        0.0971
      4 N          51.7790   53.7750   22.9620 N.ar    1  UNL1       -0.2311
      5 C          51.7350   53.5200   21.5290 C.ar    1  UNL1        0.1428
      6 C          51.6070   52.1810   20.9160 C.2     1  UNL1        0.2613
      7 O          51.3610   52.1210   19.7260 O.2     1  UNL1       -0.2687
      8 N          51.7490   51.0960   21.6820 N.am    1  UNL1       -0.3240
      9 C          51.9880   57.1300   21.7230 C.3     1  UNL1        0.0600
     10 C          53.4550   57.5680   21.5660 C.3     1  UNL1        0.0650
     11 O          54.2510   57.2110   22.6660 O.3     1  UNL1       -0.3930
     12 C          51.1060   57.6310   20.5640 C.3     1  UNL1       -0.0119
     13 C          49.6510   57.1520   20.6020 C.3     1  UNL1        0.0252
     14 N          49.0410   57.3030   19.2790 N.ar    1  UNL1       -0.3465
     15 C          48.5480   58.4350   18.7040 C.ar    1  UNL1        0.0057
     16 C          48.0910   58.1640   17.4100 C.ar    1  UNL1       -0.0364
     17 C          48.3220   56.7580   17.2020 C.ar    1  UNL1       -0.0000
     18 C          48.9180   56.2500   18.3940 C.ar    1  UNL1        0.0508
     19 C          48.0750   55.9260   16.1420 C.ar    1  UNL1       -0.0508
     20 C          48.4170   54.5770   16.2390 C.ar    1  UNL1       -0.0398
     21 C          49.0150   54.0720   17.4080 C.ar    1  UNL1        0.0354
     22 C          49.2570   54.9300   18.4840 C.ar    1  UNL1       -0.0164
     23 N          49.3960   52.7740   17.5440 N.am    1  UNL1       -0.2854
     24 C          49.1610   51.7710   16.6630 C.2     1  UNL1        0.2175
     25 O          48.5250   51.8600   15.6130 O.2     1  UNL1       -0.2755
     26 C          49.8040   50.4740   17.1270 C.3     1  UNL1        0.0282
     27 C          49.1790   49.2540   16.4430 C.3     1  UNL1       -0.0194
     28 C          47.5840   48.9190   18.3820 C.ar    1  UNL1       -0.0586
     29 C          47.8190   48.8890   17.0080 C.ar    1  UNL1       -0.0469
     30 C          46.8090   48.4760   16.1420 C.ar    1  UNL1       -0.0586
     31 C          45.5800   48.0760   16.6460 C.ar    1  UNL1       -0.0615
     32 C          45.3560   48.0770   18.0230 C.ar    1  UNL1       -0.0617
     33 C          46.3550   48.5030   18.8860 C.ar    1  UNL1       -0.0615
     34 H          51.8540   54.8220   19.8375 H       1  UNL1        0.0833
     35 H          51.8953   55.5909   24.0331 H       1  UNL1        0.1029
     36 H          51.9480   51.1933   22.6413 H       1  UNL1        0.1453
     37 H          51.6547   50.1990   21.2873 H       1  UNL1        0.1453
     38 H          51.6049   57.5950   22.6073 H       1  UNL1        0.0551
     39 H          53.4839   58.6318   21.4542 H       1  UNL1        0.0578
     40 H          53.8501   57.0672   20.7069 H       1  UNL1        0.0578
     41 H          53.9168   57.6509   23.4633 H       1  UNL1        0.2095
     42 H          51.5419   57.2952   19.6463 H       1  UNL1        0.0303
     43 H          51.0719   58.6967   20.6540 H       1  UNL1        0.0303
     44 H          49.1042   57.7350   21.3133 H       1  UNL1        0.0492
     45 H          49.6274   56.1203   20.8848 H       1  UNL1        0.0492
     46 H          48.5161   59.3610   19.1584 H       1  UNL1        0.0809
     47 H          47.6748   58.8327   16.7431 H       1  UNL1        0.0639
     48 H          47.6406   56.2933   15.2809 H       1  UNL1        0.0625
     49 H          48.2296   53.9437   15.4460 H       1  UNL1        0.0636
     50 H          49.6918   54.5664   19.3464 H       1  UNL1        0.0657
     51 H          49.8909   52.5397   18.3622 H       1  UNL1        0.1548
     52 H          49.6746   50.3822   18.1852 H       1  UNL1        0.0362
     53 H          50.8418   50.5056   16.8684 H       1  UNL1        0.0362
     54 H          49.8358   48.4188   16.5690 H       1  UNL1        0.0318
     55 H          49.0408   49.5016   15.4113 H       1  UNL1        0.0318
     56 H          48.3207   49.2494   19.0248 H       1  UNL1        0.0620
     57 H          46.9754   48.4676   15.1235 H       1  UNL1        0.0620
     58 H          44.8309   47.7775   16.0019 H       1  UNL1        0.0618
     59 H          44.4483   47.7612   18.3991 H       1  UNL1        0.0618
     60 H          46.1866   48.5115   19.9041 H       1  UNL1        0.0618
@<TRIPOS>BOND
     1     1     2   ar
     2     2     3   ar
     3     3     4   ar
     4     1     5   ar
     5     4     5   ar
     6     5     6    1
     7     6     7    2
     8     6     8   am
     9     2     9    1
    10     9    10    1
    11    10    11    1
    12     9    12    1
    13    12    13    1
    14    13    14    1
    15    14    15   ar
    16    15    16   ar
    17    16    17   ar
    18    14    18   ar
    19    17    18   ar
    20    17    19   ar
    21    19    20   ar
    22    20    21   ar
    23    18    22   ar
    24    21    22   ar
    25    21    23    1
    26    23    24   am
    27    24    25    2
    28    24    26    1
    29    26    27    1
    30    27    29    1
    31    28    29   ar
    32    29    30   ar
    33    30    31   ar
    34    31    32   ar
    35    28    33   ar
    36    32    33   ar
    37     1    34    1
    38     3    35    1
    39     8    36    1
    40     8    37    1
    41     9    38    1
    42    10    39    1
    43    10    40    1
    44    11    41    1
    45    12    42    1
    46    12    43    1
    47    13    44    1
    48    13    45    1
    49    15    46    1
    50    16    47    1
    51    19    48    1
    52    20    49    1
    53    22    50    1
    54    23    51    1
    55    26    52    1
    56    26    53    1
    57    27    54    1
    58    27    55    1
    59    28    56    1
    60    30    57    1
    61    31    58    1
    62    32    59    1
    63    33    60    1
