7BTT_F8R_A_1501
     RDKit          3D

 40 44  0  0  0  0  0  0  0  0999 V2000
    4.1957   17.6067    8.4201 N   0  0  0  0  0  0  0  0  0  0  0  0
    3.0249   17.6934    9.0437 C   0  0  0  0  0  0  0  0  0  0  0  0
    2.4479   19.7797    7.7835 C   0  0  0  0  0  0  0  0  0  0  0  0
    3.9187   20.8814    6.2365 C   0  0  0  0  0  0  0  0  0  0  0  0
    1.4811   20.7113    7.4331 C   0  0  0  0  0  0  0  0  0  0  0  0
   -0.7751   21.5541    7.7520 C   0  0  0  0  0  0  0  0  0  0  0  0
    4.7067   22.1528    4.4062 C   0  0  0  0  0  0  0  0  0  0  0  0
    6.3654   20.7189    5.6935 C   0  0  0  0  0  0  0  0  0  0  0  0
   11.0755   17.9653    9.5317 C   0  0  0  0  0  0  0  0  0  0  0  0
    9.7137   17.2655    9.5475 C   0  0  2  0  0  0  0  0  0  0  0  0
    8.3263   17.4014    6.9530 C   0  0  0  0  0  0  0  0  0  0  0  0
    8.9012   18.2506    5.9957 C   0  0  0  0  0  0  0  0  0  0  0  0
    8.1668   19.0547    5.1673 C   0  0  0  0  0  0  0  0  0  0  0  0
    6.8006   19.0188    5.2898 C   0  0  0  0  0  0  0  0  0  0  0  0
    6.2058   18.1773    6.2373 C   0  0  0  0  0  0  0  0  0  0  0  0
    6.9366   17.3639    7.0740 C   0  0  0  0  0  0  0  0  0  0  0  0
    5.0829   16.6327    8.6265 C   0  0  0  0  0  0  0  0  0  0  0  0
    3.6812   19.8704    7.1739 C   0  0  0  0  0  0  0  0  0  0  0  0
    2.9432   21.7952    5.9048 C   0  0  0  0  0  0  0  0  0  0  0  0
    1.7098   21.7090    6.5103 C   0  0  0  0  0  0  0  0  0  0  0  0
    3.4328   22.7626    4.8962 C   0  0  0  0  0  0  0  0  0  0  0  0
    7.4899   21.0405    4.7637 C   0  0  0  0  0  0  0  0  0  0  0  0
    8.7874   18.9962    4.6924 C   0  0  0  0  0  0  0  0  0  0  0  0
    8.8785   20.4281    6.5414 C   0  0  0  0  0  0  0  0  0  0  0  0
    3.4647   15.7843   10.2128 C   0  0  0  0  0  0  0  0  0  0  0  0
    4.6957   15.6704    9.5740 C   0  0  0  0  0  0  0  0  0  0  0  0
    4.5055   13.9575   10.9682 C   0  0  0  0  0  0  0  0  0  0  0  0
    3.3660   14.7072   11.0771 C   0  0  0  0  0  0  0  0  0  0  0  0
    9.6795   16.3464   10.7102 C   0  0  0  0  0  0  0  0  0  0  0  0
    6.3306   16.4866    7.9940 N   0  0  0  0  0  0  0  0  0  0  0  0
    2.1712   18.7736    8.7471 N   0  0  0  0  0  0  0  0  0  0  0  0
    5.0634   21.2248    5.4598 N   0  0  0  0  0  0  0  0  0  0  0  0
    8.6932   20.3570    5.1069 N   0  0  0  0  0  0  0  0  0  0  0  0
    2.6295   16.7920    9.9502 N   0  0  0  0  0  0  0  0  0  0  0  0
    5.2721   14.5743   10.0556 N   0  0  0  0  0  0  0  0  0  0  0  0
    0.2506   20.6150    8.0451 O   0  0  0  0  0  0  0  0  0  0  0  0
    6.5668   19.9799    6.7158 O   0  0  0  0  0  0  0  0  0  0  0  0
    8.9600   15.1059    8.1576 O   0  0  0  0  0  0  0  0  0  0  0  0
   10.7749   16.4350    7.2563 O   0  0  0  0  0  0  0  0  0  0  0  0
    9.4237   16.5483    7.9782 S   0  0  2  0  0  6  0  0  0  0  0  0
  1  2  2  0
  3  5  2  0
 10  9  1  6
 11 12  2  0
 12 13  1  0
 13 14  2  0
 14 15  1  0
 15 16  2  0
 11 16  1  0
  1 17  1  0
  4 18  2  0
  3 18  1  0
  4 19  1  0
 19 20  2  0
  5 20  1  0
  7 21  1  0
 21 19  1  1
  8 22  1  0
 17 26  2  0
 25 26  1  0
 25 28  1  0
 27 28  2  0
 29 10  1  6
 16 30  1  0
 17 30  1  0
  3 31  1  0
  2 31  1  0
  7 32  1  6
  4 32  1  0
  8 32  1  0
 24 33  1  1
 22 33  1  1
 23 33  1  1
  2 34  1  0
 25 34  2  0
 26 35  1  0
 27 35  1  0
  6 36  1  6
  5 36  1  0
  8 37  2  0
 40 11  1  6
 39 40  2  0
 38 40  2  0
 10 40  1  0
M  END
$$$$
