8FO5_Y4U_C_301
     RDKit          3D

 17 18  0  0  0  0  0  0  0  0999 V2000
   29.8458  -24.1481   51.9008 O   0  0  0  0  0  0  0  0  0  0  0  0
   33.9431  -29.3338   49.5287 O   0  0  0  0  0  0  0  0  0  0  0  0
   35.3016  -29.1736   52.1905 C   0  0  0  0  0  0  0  0  0  0  0  0
   36.1565  -29.4039   53.2455 C   0  0  0  0  0  0  0  0  0  0  0  0
   35.7251  -30.2292   54.2688 C   0  0  0  0  0  0  0  0  0  0  0  0
   34.4608  -30.7971   54.2097 C   0  0  0  0  0  0  0  0  0  0  0  0
   33.6028  -30.5653   53.1499 C   0  0  0  0  0  0  0  0  0  0  0  0
   32.3027  -26.8901   49.9881 C   0  0  0  0  0  0  0  0  0  0  0  0
   31.5625  -25.8249   50.4104 C   0  0  0  0  0  0  0  0  0  0  0  0
   31.0100  -26.1437   51.6340 C   0  0  0  0  0  0  0  0  0  0  0  0
   30.1520  -25.2576   52.4079 C   0  0  0  0  0  0  0  0  0  0  0  0
   29.6892  -25.7003   53.7344 C   0  0  0  0  0  0  0  0  0  0  0  0
   31.4462  -27.4184   51.9128 C   0  0  0  0  0  0  0  0  0  0  0  0
   33.0344  -29.3794   50.7420 S   0  0  2  0  0  6  0  0  0  0  0  0
   32.0385  -30.4679   50.4895 O   0  0  0  0  0  0  0  0  0  0  0  0
   32.2229  -27.8736   50.9294 N   0  0  0  0  0  0  0  0  0  0  0  0
   34.0476  -29.7407   52.1383 C   0  0  0  0  0  0  0  0  0  0  0  0
  3  4  2  0
  4  5  1  0
  5  6  2  0
  6  7  1  0
  8  9  2  0
  9 10  1  0
  1 11  2  0
 10 11  1  0
 12 11  1  6
 10 13  2  0
  2 14  2  0
 14 15  2  0
 14 16  1  1
 13 16  1  0
  8 16  1  0
  7 17  2  0
 14 17  1  0
  3 17  1  0
M  END
$$$$
