
     RDKit          3D

 21 22  0  0  0  0  0  0  0  0999 V2000
   -7.9958   26.8635   18.7286 C   0  0  0  0  0  0  0  0  0  0  0  0
   -7.8577   26.2662   19.9241 N   0  0  0  0  0  0  0  0  0  0  0  0
   -8.4533   25.0827   20.0585 C   0  0  0  0  0  0  0  0  0  0  0  0
   -8.3369   24.4445   21.2759 N   0  0  0  0  0  0  0  0  0  0  0  0
   -9.1932   24.4919   19.1197 N   0  0  0  0  0  0  0  0  0  0  0  0
   -9.3188   25.1131   17.9389 C   0  0  0  0  0  0  0  0  0  0  0  0
  -10.1027   24.4540   16.9862 N   0  0  0  0  0  0  0  0  0  0  0  0
   -8.7211   26.3347   17.6769 C   0  0  0  0  0  0  0  0  0  0  0  0
   -8.8157   27.0710   16.3710 C   0  0  0  0  0  0  0  0  0  0  0  0
   -7.8980   28.2721   16.2545 C   0  0  0  0  0  0  0  0  0  0  0  0
   -6.5140   28.1090   16.0684 C   0  0  0  0  0  0  0  0  0  0  0  0
   -5.6745   29.2183   15.9416 C   0  0  0  0  0  0  0  0  0  0  0  0
   -4.3176   29.1358   15.7616 O   0  0  0  0  0  0  0  0  0  0  0  0
   -3.5242   29.1868   16.9420 C   0  0  0  0  0  0  0  0  0  0  0  0
   -6.2369   30.5036   15.9506 C   0  0  0  0  0  0  0  0  0  0  0  0
   -5.4126   31.6033   15.8545 O   0  0  0  0  0  0  0  0  0  0  0  0
   -5.1572   32.1297   17.1553 C   0  0  0  0  0  0  0  0  0  0  0  0
   -7.6150   30.6920   16.1445 C   0  0  0  0  0  0  0  0  0  0  0  0
   -8.0552   31.9903   16.1568 O   0  0  0  0  0  0  0  0  0  0  0  0
   -8.2805   32.6164   14.9017 C   0  0  0  0  0  0  0  0  0  0  0  0
   -8.4376   29.5702   16.2842 C   0  0  0  0  0  0  0  0  0  0  0  0
  1  2  4  0
  2  3  4  0
  3  4  1  0
  3  5  4  0
  5  6  4  0
  6  7  1  0
  1  8  4  0
  6  8  4  0
  8  9  1  0
  9 10  1  0
 10 11  4  0
 11 12  4  0
 12 13  1  0
 13 14  1  0
 12 15  4  0
 15 16  1  0
 16 17  1  0
 15 18  4  0
 18 19  1  0
 19 20  1  0
 10 21  4  0
 18 21  4  0
M  END
