7OU8_1XI_BBB_801
     RDKit          3D

 23 25  0  0  0  0  0  0  0  0999 V2000
   -4.0252   86.3232   64.9870 C   0  0  2  0  0  0  0  0  0  0  0  0
   -4.3913   85.2504   65.9945 C   0  0  2  0  0  0  0  0  0  0  0  0
   -3.6707   84.0128   65.5083 C   0  0  1  0  0  0  0  0  0  0  0  0
   -1.9547   83.9497   63.8672 N   0  0  0  0  0  0  0  0  0  0  0  0
   -2.6873   86.6817   65.1909 N   0  0  0  0  0  0  0  0  0  0  0  0
   -1.7211   85.6377   65.5541 C   0  0  0  0  0  0  0  0  0  0  0  0
   -0.6813   81.9386   63.0812 C   0  0  0  0  0  0  0  0  0  0  0  0
   -0.6989   83.3681   63.4990 C   0  0  0  0  0  0  0  0  0  0  0  0
    0.3801   84.0190   63.5168 O   0  0  0  0  0  0  0  0  0  0  0  0
   -2.2328   84.2621   65.2793 C   0  0  1  0  0  0  0  0  0  0  0  0
   -2.4254   88.0656   65.0130 C   0  0  0  0  0  0  0  0  0  0  0  0
   -1.2879   88.6693   65.2053 N   0  0  0  0  0  0  0  0  0  0  0  0
   -1.1723   90.0494   64.7780 C   0  0  0  0  0  0  0  0  0  0  0  0
    0.0335   90.2737   63.9452 C   0  0  0  0  0  0  0  0  0  0  0  0
    0.2634   91.5383   63.4321 C   0  0  0  0  0  0  0  0  0  0  0  0
    1.3674   91.8295   62.6446 C   0  0  0  0  0  0  0  0  0  0  0  0
    2.2533   90.8053   62.3775 C   0  0  0  0  0  0  0  0  0  0  0  0
    2.0474   89.5413   62.8751 C   0  0  0  0  0  0  0  0  0  0  0  0
    0.9339   89.2568   63.6667 C   0  0  0  0  0  0  0  0  0  0  0  0
   -3.9742   88.8319   64.4680 S   0  0  0  0  0  0  0  0  0  0  0  0
   -4.9674   87.4295   65.1157 C   0  0  0  0  0  0  0  0  0  0  0  0
   -5.7394   85.0244   66.1128 O   0  0  0  0  0  0  0  0  0  0  0  0
   -3.8464   83.0452   66.4956 O   0  0  0  0  0  0  0  0  0  0  0  0
  1  2  1  0
  2  3  1  0
  1  5  1  0
  5  6  1  0
  7  8  1  0
  4  8  1  0
  8  9  2  0
 10  4  1  6
  3 10  1  0
  6 10  1  0
  5 11  1  0
 11 12  2  0
 12 13  1  0
 13 14  1  0
 14 15  2  0
 15 16  1  0
 16 17  2  0
 17 18  1  0
 18 19  2  0
 14 19  1  0
 11 20  1  0
  1 21  1  1
 20 21  1  0
  2 22  1  6
  3 23  1  1
M  END
$$$$
