1SG0_STL_B_502
     RDKit          3D

 29 30  0  0  0  0  0  0  0  0999 V2000
   41.9264   17.6498   27.2068 C   0  0  0  0  0  0  0  0  0  0  0  0
   42.6984   17.5759   28.4138 C   0  0  0  0  0  0  0  0  0  0  0  0
   42.0407   17.5664   29.6871 C   0  0  0  0  0  0  0  0  0  0  0  0
   40.6058   17.6091   29.7613 C   0  0  0  0  0  0  0  0  0  0  0  0
   39.8202   17.6788   28.5664 C   0  0  0  0  0  0  0  0  0  0  0  0
   40.4885   17.7003   27.2784 C   0  0  0  0  0  0  0  0  0  0  0  0
   38.3615   17.7035   28.6840 C   0  0  0  0  0  0  0  0  0  0  0  0
   37.6567   16.7867   29.4897 C   0  0  0  0  0  0  0  0  0  0  0  0
   36.2130   16.8167   29.6480 C   0  0  0  0  0  0  0  0  0  0  0  0
   35.5648   17.5017   30.7456 C   0  0  0  0  0  0  0  0  0  0  0  0
   34.1281   17.4834   30.8539 C   0  0  0  0  0  0  0  0  0  0  0  0
   33.3424   16.7866   29.8703 C   0  0  0  0  0  0  0  0  0  0  0  0
   33.9908   16.1190   28.7867 C   0  0  0  0  0  0  0  0  0  0  0  0
   35.4144   16.1356   28.6813 C   0  0  0  0  0  0  0  0  0  0  0  0
   31.9897   16.7491   29.9568 O   0  0  0  0  0  0  0  0  0  0  0  0
   42.7751   17.4932   30.8346 O   0  0  0  0  0  0  0  0  0  0  0  0
   42.5499   17.6625   26.0186 O   0  0  0  0  0  0  0  0  0  0  0  0
   43.7282   17.5296   28.3652 H   0  0  0  0  0  0  0  0  0  0  0  0
   40.1391   17.5895   30.6815 H   0  0  0  0  0  0  0  0  0  0  0  0
   39.9318   17.7521   26.4109 H   0  0  0  0  0  0  0  0  0  0  0  0
   37.8311   18.4163   28.1591 H   0  0  0  0  0  0  0  0  0  0  0  0
   38.1914   16.0600   29.9908 H   0  0  0  0  0  0  0  0  0  0  0  0
   36.1302   18.0021   31.4490 H   0  0  0  0  0  0  0  0  0  0  0  0
   33.6630   17.9696   31.6364 H   0  0  0  0  0  0  0  0  0  0  0  0
   33.4283   15.6230   28.0777 H   0  0  0  0  0  0  0  0  0  0  0  0
   35.8722   15.6484   27.8952 H   0  0  0  0  0  0  0  0  0  0  0  0
   31.5532   17.1833   30.6631 H   0  0  0  0  0  0  0  0  0  0  0  0
   43.7106   17.4651   30.7911 H   0  0  0  0  0  0  0  0  0  0  0  0
   43.4855   17.6293   25.9801 H   0  0  0  0  0  0  0  0  0  0  0  0
  1  2  2  0
  2  3  1  0
  3  4  2  0
  4  5  1  0
  1  6  1  0
  5  6  2  0
  5  7  1  0
  7  8  2  3
  8  9  1  0
  9 10  2  0
 10 11  1  0
 11 12  2  0
 12 13  1  0
  9 14  1  0
 13 14  2  0
 12 15  1  0
  3 16  1  0
  1 17  1  0
  2 18  1  0
  4 19  1  0
  6 20  1  0
  7 21  1  0
  8 22  1  0
 10 23  1  0
 11 24  1  0
 13 25  1  0
 14 26  1  0
 15 27  1  0
 16 28  1  0
 17 29  1  0
M  END
