1SG0_STL_B_502
     RDKit          3D

 17 18  0  0  0  0  0  0  0  0999 V2000
   32.2540   16.9310   30.8630 C   0  0  0  0  0  0  0  0  0  0  0  0
   31.6740   16.1320   31.9040 C   0  0  0  0  0  0  0  0  0  0  0  0
   32.5180   15.4030   32.8040 C   0  0  0  0  0  0  0  0  0  0  0  0
   33.9470   15.4510   32.6560 C   0  0  0  0  0  0  0  0  0  0  0  0
   34.5420   16.2400   31.6200 C   0  0  0  0  0  0  0  0  0  0  0  0
   33.6860   16.9870   30.7170 C   0  0  0  0  0  0  0  0  0  0  0  0
   36.0000   16.2490   31.4920 C   0  0  0  0  0  0  0  0  0  0  0  0
   36.6650   17.0320   30.5270 C   0  0  0  0  0  0  0  0  0  0  0  0
   38.1080   17.0280   30.3600 C   0  0  0  0  0  0  0  0  0  0  0  0
   38.9830   16.2110   31.1730 C   0  0  0  0  0  0  0  0  0  0  0  0
   40.4060   16.2420   30.9490 C   0  0  0  0  0  0  0  0  0  0  0  0
   40.9530   17.0860   29.9200 C   0  0  0  0  0  0  0  0  0  0  0  0
   40.0820   17.8940   29.1270 C   0  0  0  0  0  0  0  0  0  0  0  0
   38.6720   17.8610   29.3480 C   0  0  0  0  0  0  0  0  0  0  0  0
   42.2880   17.1250   29.6860 O   0  0  0  0  0  0  0  0  0  0  0  0
   31.9660   14.6410   33.7920 O   0  0  0  0  0  0  0  0  0  0  0  0
   31.4570   17.6140   30.0270 O   0  0  0  0  0  0  0  0  0  0  0  0
  1  2  2  0
  2  3  1  0
  3  4  2  0
  4  5  1  0
  1  6  1  0
  5  6  2  0
  5  7  1  0
  7  8  2  0
  8  9  1  0
  9 10  2  0
 10 11  1  0
 11 12  2  0
 12 13  1  0
  9 14  1  0
 13 14  2  0
 12 15  1  0
  3 16  1  0
  1 17  1  0
M  END
$$$$
1SG0_STL_A_501
     RDKit          3D

 17 18  0  0  0  0  0  0  0  0999 V2000
   23.5670   13.0790    8.1130 C   0  0  0  0  0  0  0  0  0  0  0  0
   22.3960   13.8410    7.7800 C   0  0  0  0  0  0  0  0  0  0  0  0
   22.3470   14.5870    6.5570 C   0  0  0  0  0  0  0  0  0  0  0  0
   23.4800   14.5910    5.6710 C   0  0  0  0  0  0  0  0  0  0  0  0
   24.6540   13.8370    5.9940 C   0  0  0  0  0  0  0  0  0  0  0  0
   24.6950   13.0750    7.2240 C   0  0  0  0  0  0  0  0  0  0  0  0
   25.7820   13.8750    5.0730 C   0  0  0  0  0  0  0  0  0  0  0  0
   26.9730   13.1430    5.2860 C   0  0  0  0  0  0  0  0  0  0  0  0
   28.0910   13.2190    4.3630 C   0  0  0  0  0  0  0  0  0  0  0  0
   28.0370   14.0540    3.1830 C   0  0  0  0  0  0  0  0  0  0  0  0
   29.1560   14.1150    2.2900 C   0  0  0  0  0  0  0  0  0  0  0  0
   30.3350   13.3480    2.5630 C   0  0  0  0  0  0  0  0  0  0  0  0
   30.3940   12.5160    3.7330 C   0  0  0  0  0  0  0  0  0  0  0  0
   29.2740   12.4530    4.6300 C   0  0  0  0  0  0  0  0  0  0  0  0
   31.3980   13.4070    1.7220 O   0  0  0  0  0  0  0  0  0  0  0  0
   21.2350   15.3130    6.2400 O   0  0  0  0  0  0  0  0  0  0  0  0
   23.6030   12.3800    9.2560 O   0  0  0  0  0  0  0  0  0  0  0  0
  1  2  2  0
  2  3  1  0
  3  4  2  0
  4  5  1  0
  1  6  1  0
  5  6  2  0
  5  7  1  0
  7  8  2  0
  8  9  1  0
  9 10  2  0
 10 11  1  0
 11 12  2  0
 12 13  1  0
  9 14  1  0
 13 14  2  0
 12 15  1  0
  3 16  1  0
  1 17  1  0
M  END
$$$$
