@<TRIPOS>MOLECULE
1N2V_BDI_A_900
 27 28 0 0 0
SMALL
GASTEIGER

@<TRIPOS>ATOM
      1 N          15.4350   16.8530   20.4090 N.ar    1  UNL1       -0.2268
      2 C          16.5900   17.0760   19.8060 C.ar    1  UNL1        0.1085
      3 C          16.7440   17.0260   18.2840 C.3     1  UNL1        0.0054
      4 C          15.6650   17.7690   17.4320 C.3     1  UNL1       -0.0465
      5 C          16.3420   18.3730   16.1580 C.3     1  UNL1       -0.0555
      6 C          15.3430   19.1170   15.2380 C.3     1  UNL1       -0.0653
      7 N          17.4900   17.3220   20.6050 N.ar    1  UNL1       -0.3374
      8 C          17.0380   17.3010   21.9580 C.ar    1  UNL1        0.1381
      9 C          17.7020   17.5270   23.2770 C.ar    1  UNL1        0.2888
     10 N          16.8750   17.4100   24.4010 N.ar    1  UNL1       -0.2615
     11 N          15.4120   17.0790   24.3150 N.ar    1  UNL1       -0.2615
     12 C          14.7400   16.8560   23.0980 C.ar    1  UNL1        0.2908
     13 O          13.5080   16.5760   23.0100 O.2     1  UNL1       -0.2641
     14 C          15.6460   16.9830   21.8390 C.ar    1  UNL1        0.1598
     15 O          18.9000   17.7960   23.3310 O.2     1  UNL1       -0.2642
     16 H          16.7311   15.9965   17.9928 H       1  UNL1        0.0343
     17 H          17.6587   17.5432   18.0823 H       1  UNL1        0.0343
     18 H          15.2295   18.5552   18.0127 H       1  UNL1        0.0269
     19 H          14.9002   17.0799   17.1402 H       1  UNL1        0.0269
     20 H          16.7914   17.5776   15.6009 H       1  UNL1        0.0263
     21 H          17.0665   19.0877   16.4885 H       1  UNL1        0.0263
     22 H          14.6012   18.4300   14.8876 H       1  UNL1        0.0230
     23 H          15.8680   19.5316   14.4029 H       1  UNL1        0.0230
     24 H          14.8695   19.9034   15.7878 H       1  UNL1        0.0230
     25 H          18.4192   17.5123   20.3412 H       1  UNL1        0.1672
     26 H          17.2716   17.5515   25.2909 H       1  UNL1        0.1901
     27 H          14.8973   17.0148   25.1518 H       1  UNL1        0.1901
@<TRIPOS>BOND
     1     1     2   ar
     2     2     3    1
     3     3     4    1
     4     4     5    1
     5     5     6    1
     6     2     7   ar
     7     7     8   ar
     8     8     9   ar
     9     9    10   ar
    10    10    11   ar
    11    11    12   ar
    12    12    13    2
    13     1    14   ar
    14     8    14   ar
    15    12    14   ar
    16     9    15    2
    17     3    16    1
    18     3    17    1
    19     4    18    1
    20     4    19    1
    21     5    20    1
    22     5    21    1
    23     6    22    1
    24     6    23    1
    25     6    24    1
    26     7    25    1
    27    10    26    1
    28    11    27    1
