
     RDKit          3D

 15 15  0  0  0  0  0  0  0  0999 V2000
  -23.3414   32.1625    6.1748 C   0  0  0  0  0  0  0  0  0  0  0  0
  -22.7229   32.9065    4.6786 S   0  0  0  0  0  6  0  0  0  0  0  0
  -22.5447   31.8460    3.7103 O   0  0  0  0  0  0  0  0  0  0  0  0
  -23.5345   34.0653    4.3782 O   0  0  0  0  0  0  0  0  0  0  0  0
  -21.1700   33.3952    5.1385 N   0  0  0  0  0  0  0  0  0  0  0  0
  -20.4901   34.3954    4.3623 C   0  0  0  0  0  0  0  0  0  0  0  0
  -20.6999   34.4335    2.9779 C   0  0  0  0  0  0  0  0  0  0  0  0
  -20.0580   35.3893    2.1897 C   0  0  0  0  0  0  0  0  0  0  0  0
  -19.1976   36.3015    2.7846 C   0  0  0  0  0  0  0  0  0  0  0  0
  -18.5818   37.2177    2.0273 F   0  0  0  0  0  0  0  0  0  0  0  0
  -18.9594   36.2759    4.1530 C   0  0  0  0  0  0  0  0  0  0  0  0
  -19.6009   35.3185    4.9528 C   0  0  0  0  0  0  0  0  0  0  0  0
  -19.3420   35.2737    6.4126 C   0  0  0  0  0  0  0  0  0  0  0  0
  -19.6760   36.1313    7.2113 O   0  0  0  0  0  0  0  0  0  0  0  0
  -18.6788   34.1729    6.8027 O   0  0  0  0  0  0  0  0  0  0  0  0
  1  2  1  0
  2  3  2  0
  2  4  2  0
  2  5  1  0
  5  6  1  0
  6  7  4  0
  7  8  4  0
  8  9  4  0
  9 10  1  0
  9 11  4  0
 11 12  4  0
  6 12  4  0
 12 13  1  0
 13 14  2  0
 13 15  1  0
M  END
