7P4C_5OV_AAA_905
     RDKit          3D

 16 17  0  0  0  0  0  0  0  0999 V2000
   87.9383   13.7078    0.7174 C   0  0  1  0  0  0  0  0  0  0  0  0
   88.3546   15.0824    0.2632 C   0  0  2  0  0  0  0  0  0  0  0  0
   88.9086   14.8956   -1.1455 C   0  0  2  0  0  0  0  0  0  0  0  0
   89.6231   16.1595   -1.5081 C   0  0  0  0  0  0  0  0  0  0  0  0
   87.6723   14.6679   -1.9822 C   0  0  2  0  0  0  0  0  0  0  0  0
   87.0444   13.3654   -1.6183 C   0  0  1  0  0  0  0  0  0  0  0  0
   87.0274   13.0148   -0.1898 C   0  0  1  0  0  0  0  0  0  0  0  0
   89.1974   12.9893    0.9639 N   0  0  0  0  0  0  0  0  0  0  0  0
   89.5551   14.1424    3.3140 O   0  0  0  0  0  0  0  0  0  0  0  0
   90.0005   14.2274    1.8910 S   0  0  1  0  0  0  0  0  0  0  0  0
   91.4709   14.1942    1.7232 O   0  0  0  0  0  0  0  0  0  0  0  0
   89.2752   15.5611    1.1414 O   0  0  0  0  0  0  0  0  0  0  0  0
   90.9974   16.0796   -1.4184 O   0  0  0  0  0  0  0  0  0  0  0  0
   87.9405   14.6388   -3.3492 O   0  0  0  0  0  0  0  0  0  0  0  0
   85.7334   13.4016   -2.1355 O   0  0  0  0  0  0  0  0  0  0  0  0
   87.2709   11.6264   -0.0787 O   0  0  0  0  0  0  0  0  0  0  0  0
  1  2  1  0
  2  3  1  0
  3  4  1  6
  3  5  1  0
  5  6  1  0
  1  7  1  0
  6  7  1  0
  1  8  1  6
  9 10  2  0
 10  8  1  6
 10 11  2  0
 10 12  1  0
  2 12  1  1
  4 13  1  0
  5 14  1  6
  6 15  1  1
  7 16  1  6
M  END
$$$$
