1V48_HA1_A_290
     RDKit          3D

 22 23  0  0  0  0  0  0  0  0999 V2000
   73.7934   47.2716   50.6610 N   0  0  0  0  0  0  0  0  0  0  0  0
   74.8743   47.7658   50.0193 C   0  0  0  0  0  0  0  0  0  0  0  0
   74.5641   48.9670   49.4605 N   0  0  0  0  0  0  0  0  0  0  0  0
   73.2738   49.2462   49.7456 C   0  0  0  0  0  0  0  0  0  0  0  0
   72.4179   50.2983   49.4551 C   0  0  0  0  0  0  0  0  0  0  0  0
   72.8367   51.2802   48.7692 O   0  0  0  0  0  0  0  0  0  0  0  0
   71.1351   50.2604   49.9131 N   0  0  0  0  0  0  0  0  0  0  0  0
   70.6719   49.2274   50.6425 C   0  0  0  0  0  0  0  0  0  0  0  0
   69.3355   49.1617   51.1341 N   0  0  0  0  0  0  0  0  0  0  0  0
   71.5210   48.1971   50.9232 N   0  0  0  0  0  0  0  0  0  0  0  0
   72.7927   48.1845   50.4969 C   0  0  0  0  0  0  0  0  0  0  0  0
   73.6688   46.0216   51.3949 C   0  0  0  0  0  0  0  0  0  0  0  0
   72.9595   44.9670   50.6133 C   0  0  0  0  0  0  0  0  0  0  0  0
   73.0530   43.6572   51.3395 C   0  0  0  0  0  0  0  0  0  0  0  0
   73.9876   42.7044   50.6852 C   0  0  0  0  0  0  0  0  0  0  0  0
   73.6782   41.2451   50.9124 C   0  0  2  0  0  0  0  0  0  0  0  0
   72.3555   40.9745   51.0393 F   0  0  0  0  0  0  0  0  0  0  0  0
   74.2735   40.8985   52.1272 F   0  0  0  0  0  0  0  0  0  0  0  0
   74.4285   40.2010   49.6345 P   0  0  1  0  0  0  0  0  0  0  0  0
   73.7616   38.6411   49.7302 O   0  0  0  0  0  0  0  0  0  0  0  0
   74.1308   40.7245   48.2484 O   0  0  0  0  0  0  0  0  0  0  0  0
   76.1046   40.1142   49.8342 O   0  0  0  0  0  0  0  0  0  0  0  0
  1  2  1  0
  2  3  2  0
  3  4  1  0
  4  5  1  0
  5  6  2  0
  5  7  1  0
  7  8  1  0
  8  9  1  0
  8 10  2  0
  1 11  1  0
  4 11  2  0
 10 11  1  0
  1 12  1  0
 12 13  1  0
 13 14  1  0
 14 15  1  0
 15 16  1  0
 16 17  1  1
 16 18  1  0
 16 19  1  0
 19 20  1  6
 19 21  2  0
 19 22  1  0
M  END
$$$$
