1V48_HA1_A_290
     RDKit          3D

 22 23  0  0  0  0  0  0  0  0999 V2000
   72.3726   46.4177   50.3055 N   0  0  0  0  0  0  0  0  0  0  0  0
   71.0835   46.7893   50.4624 C   0  0  0  0  0  0  0  0  0  0  0  0
   70.9309   48.0843   50.0739 N   0  0  0  0  0  0  0  0  0  0  0  0
   72.1314   48.5480   49.6643 C   0  0  0  0  0  0  0  0  0  0  0  0
   72.5904   49.7603   49.1709 C   0  0  0  0  0  0  0  0  0  0  0  0
   71.7833   50.7291   49.0295 O   0  0  0  0  0  0  0  0  0  0  0  0
   73.9067   49.8920   48.8443 N   0  0  0  0  0  0  0  0  0  0  0  0
   74.7788   48.8758   48.9871 C   0  0  0  0  0  0  0  0  0  0  0  0
   76.1604   48.9856   48.6536 N   0  0  0  0  0  0  0  0  0  0  0  0
   74.3182   47.6871   49.4732 N   0  0  0  0  0  0  0  0  0  0  0  0
   73.0328   47.5041   49.8097 C   0  0  0  0  0  0  0  0  0  0  0  0
   72.9855   45.1299   50.5925 C   0  0  0  0  0  0  0  0  0  0  0  0
   73.4123   45.0037   52.0167 C   0  0  0  0  0  0  0  0  0  0  0  0
   73.7647   43.5747   52.3092 C   0  0  0  0  0  0  0  0  0  0  0  0
   73.8075   42.7327   51.0850 C   0  0  0  0  0  0  0  0  0  0  0  0
   74.4296   41.3700   51.2659 C   0  0  2  0  0  0  0  0  0  0  0  0
   73.9371   40.6739   52.3202 F   0  0  0  0  0  0  0  0  0  0  0  0
   75.7842   41.5848   51.5289 F   0  0  0  0  0  0  0  0  0  0  0  0
   74.3315   40.3886   49.7449 P   0  0  1  0  0  0  0  0  0  0  0  0
   72.7022   40.0362   49.4159 O   0  0  0  0  0  0  0  0  0  0  0  0
   74.8662   41.1554   48.5574 O   0  0  0  0  0  0  0  0  0  0  0  0
   75.2029   38.9487   49.8990 O   0  0  0  0  0  0  0  0  0  0  0  0
  1  2  1  0
  2  3  2  0
  3  4  1  0
  4  5  1  0
  5  6  2  0
  5  7  1  0
  7  8  1  0
  8  9  1  0
  8 10  2  0
  1 11  1  0
  4 11  2  0
 10 11  1  0
  1 12  1  0
 12 13  1  0
 13 14  1  0
 14 15  1  0
 15 16  1  0
 16 17  1  1
 16 18  1  0
 16 19  1  0
 19 20  1  6
 19 21  2  0
 19 22  1  0
M  END
$$$$
