1V48_HA1_A_290
     RDKit          3D

 22 23  0  0  0  0  0  0  0  0999 V2000
   72.3464   46.4461   50.2908 N   0  0  0  0  0  0  0  0  0  0  0  0
   71.0560   46.8092   50.4573 C   0  0  0  0  0  0  0  0  0  0  0  0
   70.8921   48.1032   50.0701 N   0  0  0  0  0  0  0  0  0  0  0  0
   72.0865   48.5747   49.6516 C   0  0  0  0  0  0  0  0  0  0  0  0
   72.5339   49.7901   49.1550 C   0  0  0  0  0  0  0  0  0  0  0  0
   71.7195   50.7536   49.0198 O   0  0  0  0  0  0  0  0  0  0  0  0
   73.8469   49.9304   48.8187 N   0  0  0  0  0  0  0  0  0  0  0  0
   74.7266   48.9199   48.9549 C   0  0  0  0  0  0  0  0  0  0  0  0
   76.1049   49.0387   48.6112 N   0  0  0  0  0  0  0  0  0  0  0  0
   74.2774   47.7281   49.4442 N   0  0  0  0  0  0  0  0  0  0  0  0
   72.9957   47.5368   49.7903 C   0  0  0  0  0  0  0  0  0  0  0  0
   72.9697   45.1622   50.5731 C   0  0  0  0  0  0  0  0  0  0  0  0
   73.7085   45.1572   51.8694 C   0  0  0  0  0  0  0  0  0  0  0  0
   74.0935   43.7501   52.2211 C   0  0  0  0  0  0  0  0  0  0  0  0
   73.9194   42.8073   51.0852 C   0  0  0  0  0  0  0  0  0  0  0  0
   74.5312   41.4426   51.2855 C   0  0  2  0  0  0  0  0  0  0  0  0
   74.1865   40.8495   52.4552 F   0  0  0  0  0  0  0  0  0  0  0  0
   75.9143   41.6310   51.3274 F   0  0  0  0  0  0  0  0  0  0  0  0
   74.1850   40.3479   49.8827 P   0  0  1  0  0  0  0  0  0  0  0  0
   74.8206   41.0413   48.4676 O   0  0  0  0  0  0  0  0  0  0  0  0
   74.8525   39.0028   50.0539 O   0  0  0  0  0  0  0  0  0  0  0  0
   72.5218   40.1099   49.6997 O   0  0  0  0  0  0  0  0  0  0  0  0
  1  2  1  0
  2  3  2  0
  3  4  1  0
  4  5  1  0
  5  6  2  0
  5  7  1  0
  7  8  1  0
  8  9  1  0
  8 10  2  0
  1 11  1  0
  4 11  2  0
 10 11  1  0
  1 12  1  0
 12 13  1  0
 13 14  1  0
 14 15  1  0
 15 16  1  0
 16 17  1  1
 16 18  1  0
 16 19  1  0
 19 20  1  6
 19 21  2  0
 19 22  1  0
M  END
$$$$
