1V48_HA1_A_290
     RDKit          3D

 22 23  0  0  0  0  0  0  0  0999 V2000
   98.9845   27.9389   44.2160 N   0  0  0  0  0  0  0  0  0  0  0  0
   99.8923   27.3718   43.3921 C   0  0  0  0  0  0  0  0  0  0  0  0
  100.6332   26.4645   44.0842 N   0  0  0  0  0  0  0  0  0  0  0  0
  100.1978   26.4488   45.3626 C   0  0  0  0  0  0  0  0  0  0  0  0
  100.5554   25.7477   46.5048 C   0  0  0  0  0  0  0  0  0  0  0  0
  101.4966   24.8982   46.4536 O   0  0  0  0  0  0  0  0  0  0  0  0
   99.8873   25.9835   47.6686 N   0  0  0  0  0  0  0  0  0  0  0  0
   98.8859   26.8808   47.7431 C   0  0  0  0  0  0  0  0  0  0  0  0
   98.1702   27.1474   48.9468 N   0  0  0  0  0  0  0  0  0  0  0  0
   98.5411   27.5657   46.6146 N   0  0  0  0  0  0  0  0  0  0  0  0
   99.1660   27.3719   45.4437 C   0  0  0  0  0  0  0  0  0  0  0  0
   97.9902   28.9548   43.9062 C   0  0  0  0  0  0  0  0  0  0  0  0
   98.5322   30.0402   43.0376 C   0  0  0  0  0  0  0  0  0  0  0  0
   97.4029   30.8928   42.5379 C   0  0  0  0  0  0  0  0  0  0  0  0
   96.1734   30.1070   42.2546 C   0  0  0  0  0  0  0  0  0  0  0  0
   95.1035   30.8452   41.4884 C   0  0  2  0  0  0  0  0  0  0  0  0
   95.5418   31.4159   40.3391 F   0  0  0  0  0  0  0  0  0  0  0  0
   94.6746   31.8882   42.3121 F   0  0  0  0  0  0  0  0  0  0  0  0
   93.6643   29.7889   41.1737 P   0  0  1  0  0  0  0  0  0  0  0  0
   93.3833   29.7181   39.4994 O   0  0  0  0  0  0  0  0  0  0  0  0
   93.9060   28.3722   41.6414 O   0  0  0  0  0  0  0  0  0  0  0  0
   92.2916   30.3919   41.9538 O   0  0  0  0  0  0  0  0  0  0  0  0
  1  2  1  0
  2  3  2  0
  3  4  1  0
  4  5  1  0
  5  6  2  0
  5  7  1  0
  7  8  1  0
  8  9  1  0
  8 10  2  0
  1 11  1  0
  4 11  2  0
 10 11  1  0
  1 12  1  0
 12 13  1  0
 13 14  1  0
 14 15  1  0
 15 16  1  0
 16 17  1  6
 16 18  1  0
 16 19  1  0
 19 20  1  6
 19 21  2  0
 19 22  1  0
M  END
$$$$
