7AFX_R9K_A_304
     RDKit          3D

 20 22  0  0  0  0  0  0  0  0999 V2000
  -34.7837   -8.4793   61.7494 C   0  0  0  0  0  0  0  0  0  0  0  0
  -31.3441  -10.6324   60.7229 C   0  0  0  0  0  0  0  0  0  0  0  0
  -32.3385   -8.7572   61.7392 C   0  0  0  0  0  0  0  0  0  0  0  0
  -38.3260   -5.4329   61.9306 C   0  0  0  0  0  0  0  0  0  0  0  0
  -37.0938   -5.8715   61.1945 C   0  0  0  0  0  0  0  0  0  0  0  0
  -36.6515   -5.2247   60.0587 C   0  0  0  0  0  0  0  0  0  0  0  0
  -35.5039   -5.6619   59.4042 C   0  0  0  0  0  0  0  0  0  0  0  0
  -34.8243   -6.7329   59.8967 C   0  0  0  0  0  0  0  0  0  0  0  0
  -35.2653   -7.3889   61.0412 C   0  0  0  0  0  0  0  0  0  0  0  0
  -36.4031   -6.9651   61.7005 C   0  0  0  0  0  0  0  0  0  0  0  0
  -35.6287   -8.6987   62.8178 C   0  0  0  0  0  0  0  0  0  0  0  0
  -33.5875   -9.2327   61.3897 C   0  0  0  0  0  0  0  0  0  0  0  0
  -33.7284  -10.4365   60.6897 C   0  0  0  0  0  0  0  0  0  0  0  0
  -32.5891  -11.1372   60.3569 C   0  0  0  0  0  0  0  0  0  0  0  0
  -31.2041   -9.4600   61.4049 C   0  0  0  0  0  0  0  0  0  0  0  0
  -35.4663   -9.7595   63.8077 C   0  0  0  0  0  0  0  0  0  0  0  0
  -36.6003   -7.7690   62.7655 N   0  0  0  0  0  0  0  0  0  0  0  0
  -36.3961   -9.9135   64.8296 O   0  0  0  0  0  0  0  0  0  0  0  0
  -34.4781  -10.5537   63.7505 O   0  0  0  0  0  0  0  0  0  0  0  0
  -35.3402  -11.0073   60.2633 Cl  0  0  0  0  0  0  0  0  0  0  0  0
  4  5  1  6
  5  6  2  0
  6  7  1  0
  7  8  2  0
  1  9  1  0
  8  9  1  0
  9 10  2  0
  5 10  1  0
  1 11  2  0
  3 12  1  0
  1 12  1  0
 12 13  2  0
  2 14  2  0
 13 14  1  0
  3 15  2  0
  2 15  1  0
 11 16  1  0
 11 17  1  0
 10 17  1  0
 16 18  1  0
 16 19  2  0
 13 20  1  0
M  END
$$$$
