1S3V_TQD_A_187
     RDKit          3D

 56 58  0  0  0  0  0  0  0  0999 V2000
   -2.4626    2.9965    4.1060 C   0  0  2  0  0  0  0  0  0  0  0  0
   -0.4702    1.7092    4.6689 C   0  0  0  0  0  0  0  0  0  0  0  0
   -0.4508    1.1209    3.2997 C   0  0  0  0  0  0  0  0  0  0  0  0
    0.5192    0.0009    2.9766 C   0  0  0  0  0  0  0  0  0  0  0  0
    0.2080   -0.7224    1.6528 C   0  0  1  0  0  0  0  0  0  0  0  0
   -0.0405    0.3289    0.5609 C   0  0  0  0  0  0  0  0  0  0  0  0
   -1.2557    1.1822    0.9251 C   0  0  0  0  0  0  0  0  0  0  0  0
   -1.2193    1.6911    2.3462 C   0  0  0  0  0  0  0  0  0  0  0  0
    1.3640   -1.6805    1.2835 C   0  0  0  0  0  0  0  0  0  0  0  0
    0.8480   -2.4483   -1.0767 C   0  0  0  0  0  0  0  0  0  0  0  0
   -0.3487   -2.6652   -1.7686 C   0  0  0  0  0  0  0  0  0  0  0  0
   -0.4543   -2.3768   -3.1426 C   0  0  0  0  0  0  0  0  0  0  0  0
   -2.8639   -3.0686   -3.2412 C   0  0  0  0  0  0  0  0  0  0  0  0
    0.6763   -1.8629   -3.8307 C   0  0  0  0  0  0  0  0  0  0  0  0
   -0.4359   -1.6013   -6.0881 C   0  0  0  0  0  0  0  0  0  0  0  0
    1.8794   -1.6551   -3.1353 C   0  0  0  0  0  0  0  0  0  0  0  0
    4.2542   -0.8706   -3.2799 C   0  0  0  0  0  0  0  0  0  0  0  0
    1.9593   -1.9499   -1.7636 C   0  0  0  0  0  0  0  0  0  0  0  0
   -2.1067    2.7593    2.7050 N   0  0  0  0  0  0  0  0  0  0  0  0
   -2.7607    4.4090    4.3249 N   0  0  0  0  0  0  0  0  0  0  0  0
   -1.3724    2.5889    4.9919 N   0  0  0  0  0  0  0  0  0  0  0  0
    0.5309    1.3701    5.6338 N   0  0  0  0  0  0  0  0  0  0  0  0
    0.9209   -2.7151    0.3359 N   0  0  0  0  0  0  0  0  0  0  0  0
   -1.6595   -2.5883   -3.8306 O   0  0  0  0  0  0  0  0  0  0  0  0
    0.6752   -1.5364   -5.2009 O   0  0  0  0  0  0  0  0  0  0  0  0
    2.9778   -1.1460   -3.8480 O   0  0  0  0  0  0  0  0  0  0  0  0
    0.5665   -4.0410    0.8485 C   0  0  0  0  0  0  0  0  0  0  0  0
   -3.3620    2.3917    4.3519 H   0  0  0  0  0  0  0  0  0  0  0  0
    1.5425    0.4342    2.9311 H   0  0  0  0  0  0  0  0  0  0  0  0
    0.4935   -0.7487    3.7968 H   0  0  0  0  0  0  0  0  0  0  0  0
   -0.7177   -1.3246    1.7960 H   0  0  0  0  0  0  0  0  0  0  0  0
   -0.2409   -0.1504   -0.4170 H   0  0  0  0  0  0  0  0  0  0  0  0
    0.8534    0.9820    0.4472 H   0  0  0  0  0  0  0  0  0  0  0  0
   -1.3108    2.0430    0.2246 H   0  0  0  0  0  0  0  0  0  0  0  0
   -2.1791    0.5779    0.7944 H   0  0  0  0  0  0  0  0  0  0  0  0
    1.7353   -2.1758    2.2084 H   0  0  0  0  0  0  0  0  0  0  0  0
    2.2264   -1.1113    0.8758 H   0  0  0  0  0  0  0  0  0  0  0  0
   -1.1988   -3.0446   -1.2195 H   0  0  0  0  0  0  0  0  0  0  0  0
   -2.7077   -4.0884   -2.8315 H   0  0  0  0  0  0  0  0  0  0  0  0
   -3.6534   -3.1160   -4.0192 H   0  0  0  0  0  0  0  0  0  0  0  0
   -3.1991   -2.3768   -2.4390 H   0  0  0  0  0  0  0  0  0  0  0  0
   -1.2550   -0.9432   -5.7284 H   0  0  0  0  0  0  0  0  0  0  0  0
   -0.1168   -1.2426   -7.0886 H   0  0  0  0  0  0  0  0  0  0  0  0
   -0.7832   -2.6503   -6.1920 H   0  0  0  0  0  0  0  0  0  0  0  0
    4.1571   -0.1159   -2.4716 H   0  0  0  0  0  0  0  0  0  0  0  0
    4.9206   -0.4629   -4.0672 H   0  0  0  0  0  0  0  0  0  0  0  0
    4.7044   -1.8038   -2.8810 H   0  0  0  0  0  0  0  0  0  0  0  0
    2.8867   -1.8086   -1.2283 H   0  0  0  0  0  0  0  0  0  0  0  0
   -2.6890    3.2034    1.9589 H   0  0  0  0  0  0  0  0  0  0  0  0
   -1.9413    4.9758    4.0034 H   0  0  0  0  0  0  0  0  0  0  0  0
   -3.5752    4.6733    3.7239 H   0  0  0  0  0  0  0  0  0  0  0  0
    1.3305    0.7415    5.4066 H   0  0  0  0  0  0  0  0  0  0  0  0
    0.4894    1.7786    6.5942 H   0  0  0  0  0  0  0  0  0  0  0  0
   -0.2477   -3.9502    1.5977 H   0  0  0  0  0  0  0  0  0  0  0  0
    0.2276   -4.7135    0.0319 H   0  0  0  0  0  0  0  0  0  0  0  0
    1.4557   -4.5015    1.3287 H   0  0  0  0  0  0  0  0  0  0  0  0
  2  3  1  0
  3  4  1  0
  4  5  1  0
  5  6  1  0
  6  7  1  0
  3  8  2  0
  7  8  1  0
  5  9  1  0
 10 11  2  0
 11 12  1  0
 12 14  2  0
 14 16  1  0
 10 18  1  0
 16 18  2  0
  1 19  1  0
  8 19  1  0
  1 20  1  0
  1 21  1  0
  2 21  2  0
  2 22  1  0
  9 23  1  0
 10 23  1  0
 12 24  1  0
 13 24  1  0
 14 25  1  0
 15 25  1  0
 16 26  1  0
 17 26  1  0
 23 27  1  0
  1 28  1  1
  4 29  1  0
  4 30  1  0
  5 31  1  1
  6 32  1  0
  6 33  1  0
  7 34  1  0
  7 35  1  0
  9 36  1  0
  9 37  1  0
 11 38  1  0
 13 39  1  0
 13 40  1  0
 13 41  1  0
 15 42  1  0
 15 43  1  0
 15 44  1  0
 17 45  1  0
 17 46  1  0
 17 47  1  0
 18 48  1  0
 19 49  1  0
 20 50  1  0
 20 51  1  0
 22 52  1  0
 22 53  1  0
 27 54  1  0
 27 55  1  0
 27 56  1  0
M  END
