
     RDKit          3D

 34 37  0  0  0  0  0  0  0  0999 V2000
   -7.6336   85.4977   21.4498 N   0  0  0  0  0  0  0  0  0  0  0  0
   -5.6672   84.5261   23.1023 C   0  0  0  0  0  0  0  0  0  0  0  0
   -5.3031   85.4211   22.0960 C   0  0  0  0  0  0  0  0  0  0  0  0
  -10.0552   88.8088   15.5311 N   0  0  0  0  0  0  0  0  0  0  0  0
   -3.9893   85.9111   22.0376 C   0  0  0  0  0  0  0  0  0  0  0  0
  -11.0730   84.7528   17.4421 O   0  0  0  0  0  0  0  0  0  0  0  0
   -1.5736   86.0517   22.8773 C   0  0  1  0  0  0  0  0  0  0  0  0
   -3.4005   84.5702   23.9520 C   0  0  0  0  0  0  0  0  0  0  0  0
   -4.7159   84.0994   24.0245 C   0  0  0  0  0  0  0  0  0  0  0  0
  -10.6112   88.2308   13.2745 N   0  0  0  0  0  0  0  0  0  0  0  0
   -3.0053   85.4838   22.9583 C   0  0  0  0  0  0  0  0  0  0  0  0
   -1.3023   86.6056   21.5222 C   0  0  0  0  0  0  0  0  0  0  0  0
   -1.4412   87.1872   23.9127 C   0  0  0  0  0  0  0  0  0  0  0  0
  -12.2781   87.5681   19.2182 F   0  0  0  0  0  0  0  0  0  0  0  0
  -11.1658   87.0604   19.7655 C   0  0  0  0  0  0  0  0  0  0  0  0
  -10.8537   87.3843   21.0820 C   0  0  0  0  0  0  0  0  0  0  0  0
   -9.6867   86.8806   21.6702 C   0  0  0  0  0  0  0  0  0  0  0  0
  -10.3187   86.2446   19.0303 C   0  0  0  0  0  0  0  0  0  0  0  0
   -9.1627   85.7391   19.6145 C   0  0  0  0  0  0  0  0  0  0  0  0
   -8.3405   84.9449   18.9087 F   0  0  0  0  0  0  0  0  0  0  0  0
   -8.8309   86.0493   20.9411 C   0  0  0  0  0  0  0  0  0  0  0  0
   -6.3408   85.8594   21.1231 C   0  0  0  0  0  0  0  0  0  0  0  0
   -5.9891   86.5138   20.1497 O   0  0  0  0  0  0  0  0  0  0  0  0
   -1.1118   87.0561   20.4690 N   0  0  0  0  0  0  0  0  0  0  0  0
   -0.4715   85.0094   23.1662 C   0  0  0  0  0  0  0  0  0  0  0  0
  -10.6629   85.8899   17.6553 C   0  0  0  0  0  0  0  0  0  0  0  0
  -10.5021   86.8950   16.6078 C   0  0  0  0  0  0  0  0  0  0  0  0
  -10.7853   86.7261   15.2110 C   0  0  0  0  0  0  0  0  0  0  0  0
  -11.2589   85.6776   14.3988 C   0  0  0  0  0  0  0  0  0  0  0  0
  -11.3986   85.9292   13.0356 C   0  0  0  0  0  0  0  0  0  0  0  0
  -11.9709   84.6981   11.9820 Cl  0  0  0  0  0  0  0  0  0  0  0  0
  -11.0703   87.1856   12.5406 C   0  0  0  0  0  0  0  0  0  0  0  0
  -10.4950   87.9324   14.5817 C   0  0  0  0  0  0  0  0  0  0  0  0
  -10.0581   88.2022   16.7622 C   0  0  0  0  0  0  0  0  0  0  0  0
  2  3  4  0
  3  5  4  0
  2  9  4  0
  8  9  4  0
  5 11  4  0
  7 11  1  0
  8 11  4  0
  7 12  1  0
  7 13  1  1
 14 15  1  0
 15 16  4  0
 16 17  4  0
 15 18  4  0
 18 19  4  0
 19 20  1  0
 19 21  4  0
  1 21  1  0
 17 21  4  0
  1 22  1  0
  3 22  1  0
 22 23  2  0
 12 24  3  0
  7 25  1  0
  6 26  2  0
 18 26  1  0
 26 27  1  0
 27 28  4  0
 28 29  4  0
 29 30  4  0
 30 31  1  0
 30 32  4  0
 10 32  4  0
 10 33  4  0
 28 33  4  0
  4 33  4  0
  4 34  4  0
 27 34  4  0
M  END
