7QTA_URI_B_407
     RDKit          3D

 17 18  0  0  0  0  0  0  0  0999 V2000
   -1.1645   -0.2012    4.5807 N   0  0  0  0  0  0  0  0  0  0  0  0
   -0.6218    0.9449    4.0141 C   0  0  0  0  0  0  0  0  0  0  0  0
   -1.5296    1.7366    3.3693 N   0  0  0  0  0  0  0  0  0  0  0  0
   -2.8950    1.5491    3.2864 C   0  0  0  0  0  0  0  0  0  0  0  0
   -3.3671    0.3198    3.8628 C   0  0  0  0  0  0  0  0  0  0  0  0
   -2.5076   -0.4752    4.5179 C   0  0  0  0  0  0  0  0  0  0  0  0
    0.5677    1.2447    4.0643 O   0  0  0  0  0  0  0  0  0  0  0  0
   -3.5904    2.3519    2.6670 O   0  0  0  0  0  0  0  0  0  0  0  0
   -0.2764   -1.1472    5.2858 C   0  0  1  0  0  0  0  0  0  0  0  0
   -0.6384   -1.2442    6.7718 C   0  0  1  0  0  0  0  0  0  0  0  0
   -0.9579   -2.7428    6.9759 C   0  0  1  0  0  0  0  0  0  0  0  0
   -0.2728   -3.4070    5.7736 C   0  0  2  0  0  0  0  0  0  0  0  0
    0.4075   -0.6888    7.5406 O   0  0  0  0  0  0  0  0  0  0  0  0
   -0.5525   -3.2655    8.2365 O   0  0  0  0  0  0  0  0  0  0  0  0
   -0.4588   -2.4336    4.7257 O   0  0  0  0  0  0  0  0  0  0  0  0
   -0.8763   -4.7231    5.3433 C   0  0  0  0  0  0  0  0  0  0  0  0
   -0.3296   -5.1271    4.0668 O   0  0  0  0  0  0  0  0  0  0  0  0
  1  2  1  0
  2  3  1  0
  3  4  1  0
  4  5  1  0
  1  6  1  0
  5  6  2  0
  2  7  2  0
  4  8  2  0
  9  1  1  6
  9 10  1  0
 10 11  1  0
 11 12  1  0
 10 13  1  1
 11 14  1  1
  9 15  1  0
 12 15  1  0
 12 16  1  6
 16 17  1  0
M  END
