1LRH_NLA_D_8190
     RDKit          3D

 24 25  0  0  0  0  0  0  0  0999 V2000
   36.8297   58.7169   77.7434 C   0  0  0  0  0  0  0  0  0  0  0  0
   35.6653   59.4734   77.5740 C   0  0  0  0  0  0  0  0  0  0  0  0
   34.6346   59.4885   78.5693 C   0  0  0  0  0  0  0  0  0  0  0  0
   34.8445   58.7168   79.7353 C   0  0  0  0  0  0  0  0  0  0  0  0
   35.9603   57.9758   79.9455 C   0  0  0  0  0  0  0  0  0  0  0  0
   36.9777   57.9563   78.9779 C   0  0  0  0  0  0  0  0  0  0  0  0
   38.1955   57.2076   79.1386 C   0  0  0  0  0  0  0  0  0  0  0  0
   39.1571   57.1966   78.1462 C   0  0  0  0  0  0  0  0  0  0  0  0
   39.0220   57.9413   76.9603 C   0  0  0  0  0  0  0  0  0  0  0  0
   37.8835   58.6811   76.7363 C   0  0  0  0  0  0  0  0  0  0  0  0
   35.4305   60.2815   76.2687 C   0  0  0  0  0  0  0  0  0  0  0  0
   35.5277   59.3778   75.0858 C   0  0  0  0  0  0  0  0  0  0  0  0
   36.6115   59.2290   74.3698 O   0  0  0  0  0  0  0  0  0  0  0  0
   34.4162   58.6719   74.9385 O   0  0  0  0  0  0  0  0  0  0  0  0
   33.7727   60.0412   78.4402 H   0  0  0  0  0  0  0  0  0  0  0  0
   34.1121   58.7175   80.4624 H   0  0  0  0  0  0  0  0  0  0  0  0
   36.0615   57.4279   80.8141 H   0  0  0  0  0  0  0  0  0  0  0  0
   38.3530   56.6717   80.0063 H   0  0  0  0  0  0  0  0  0  0  0  0
   40.0039   56.6221   78.2797 H   0  0  0  0  0  0  0  0  0  0  0  0
   39.7776   57.9328   76.2576 H   0  0  0  0  0  0  0  0  0  0  0  0
   37.7757   59.2100   75.8566 H   0  0  0  0  0  0  0  0  0  0  0  0
   36.1708   61.0500   76.1895 H   0  0  0  0  0  0  0  0  0  0  0  0
   34.4548   60.7198   76.2972 H   0  0  0  0  0  0  0  0  0  0  0  0
   33.6789   58.8381   75.4922 H   0  0  0  0  0  0  0  0  0  0  0  0
  1  2  2  0
  2  3  1  0
  3  4  2  0
  4  5  1  0
  1  6  1  0
  5  6  2  0
  6  7  1  0
  7  8  2  0
  8  9  1  0
  1 10  1  0
  9 10  2  0
  2 11  1  0
 11 12  1  0
 12 13  2  0
 12 14  1  0
  3 15  1  0
  4 16  1  0
  5 17  1  0
  7 18  1  0
  8 19  1  0
  9 20  1  0
 10 21  1  0
 11 22  1  0
 11 23  1  0
 14 24  1  0
M  END
