7POM_7VZ_C_302
     RDKit          3D

 22 23  0  0  0  0  0  0  0  0999 V2000
  -31.1770   15.7920  -88.0036 Cl  0  0  0  0  0  0  0  0  0  0  0  0
  -30.1348   14.5777  -88.7397 C   0  0  0  0  0  0  0  0  0  0  0  0
  -29.1700   14.9775  -89.6524 C   0  0  0  0  0  0  0  0  0  0  0  0
  -28.9955   16.3908  -90.0209 C   0  0  0  0  0  0  0  0  0  0  0  0
  -28.6700   16.6832  -91.3185 O   0  0  0  0  0  0  0  0  0  0  0  0
  -28.4682   18.0371  -91.6720 C   0  0  0  0  0  0  0  0  0  0  0  0
  -29.1329   17.3160  -89.2003 O   0  0  0  0  0  0  0  0  0  0  0  0
  -30.2466   13.2377  -88.4377 C   0  0  0  0  0  0  0  0  0  0  0  0
  -29.4236   12.2720  -89.0181 C   0  0  0  0  0  0  0  0  0  0  0  0
  -28.4652   12.6690  -89.9247 C   0  0  0  0  0  0  0  0  0  0  0  0
  -27.4366   11.4657  -90.6506 S   0  0  1  0  0  0  0  0  0  0  0  0
  -28.3610   10.4680  -91.3349 O   0  0  0  0  0  0  0  0  0  0  0  0
  -26.4901   12.1659  -91.9296 N   0  0  0  0  0  0  0  0  0  0  0  0
  -26.6109   10.7166  -89.6706 O   0  0  0  0  0  0  0  0  0  0  0  0
  -28.3734   14.0181  -90.2104 C   0  0  0  0  0  0  0  0  0  0  0  0
  -29.6819   10.5903  -88.5348 S   0  0  0  0  0  0  0  0  0  0  0  0
  -31.2274    9.8921  -89.1506 C   0  0  1  0  0  0  0  0  0  0  0  0
  -31.4149    8.5388  -88.5313 C   0  0  0  0  0  0  0  0  0  0  0  0
  -32.2757    8.5435  -87.2941 C   0  0  0  0  0  0  0  0  0  0  0  0
  -33.6549    8.9929  -87.6615 C   0  0  0  0  0  0  0  0  0  0  0  0
  -33.6548    9.8961  -88.8787 C   0  0  0  0  0  0  0  0  0  0  0  0
  -32.4169   10.7628  -88.8235 C   0  0  0  0  0  0  0  0  0  0  0  0
  1  2  1  0
  2  3  2  0
  3  4  1  0
  4  5  1  0
  5  6  1  0
  4  7  2  0
  2  8  1  0
  8  9  2  0
  9 10  1  0
 10 11  1  0
 11 12  2  0
 11 13  1  6
 11 14  2  0
 10 15  2  0
  3 15  1  0
  9 16  1  0
 17 16  1  1
 17 18  1  0
 18 19  1  0
 19 20  1  0
 20 21  1  0
 21 22  1  0
 17 22  1  0
M  END
$$$$
