7C3U_AZG_B_202
     RDKit          3D

 11 12  0  0  0  0  0  0  0  0999 V2000
   17.9524   30.3824   44.3565 C   0  0  0  0  0  0  0  0  0  0  0  0
   17.4766   29.5838   43.3978 N   0  0  0  0  0  0  0  0  0  0  0  0
   18.2774   28.7716   42.6565 C   0  0  0  0  0  0  0  0  0  0  0  0
   17.6763   27.9512   41.6514 N   0  0  0  0  0  0  0  0  0  0  0  0
   19.6019   28.7679   42.8934 N   0  0  0  0  0  0  0  0  0  0  0  0
   20.1500   29.5466   43.8435 C   0  0  0  0  0  0  0  0  0  0  0  0
   21.5079   29.5703   44.1164 O   0  0  0  0  0  0  0  0  0  0  0  0
   19.3212   30.3725   44.5946 C   0  0  0  0  0  0  0  0  0  0  0  0
   19.6117   31.2430   45.5982 N   0  0  0  0  0  0  0  0  0  0  0  0
   18.4445   31.7577   45.9480 N   0  0  0  0  0  0  0  0  0  0  0  0
   17.4574   31.2710   45.2368 N   0  0  0  0  0  0  0  0  0  0  0  0
  1  2  2  0
  2  3  1  0
  3  4  1  0
  3  5  2  0
  5  6  1  0
  6  7  1  0
  1  8  1  0
  6  8  2  0
  8  9  1  0
  9 10  1  0
  1 11  1  0
 10 11  2  0
M  END
$$$$
