1HP0_AD3_A_1315
     RDKit          3D

 33 35  0  0  0  0  0  0  0  0999 V2000
   20.1475   28.5435   21.2590 O   0  0  0  0  0  0  0  0  0  0  0  0
   20.8814   28.1642   20.1245 C   0  0  1  0  0  0  0  0  0  0  0  0
   20.1355   27.0923   19.3153 C   0  0  1  0  0  0  0  0  0  0  0  0
   20.0251   25.9128   20.0867 O   0  0  0  0  0  0  0  0  0  0  0  0
   18.7361   27.5551   18.8800 C   0  0  1  0  0  0  0  0  0  0  0  0
   18.5089   27.2119   17.5357 O   0  0  0  0  0  0  0  0  0  0  0  0
   17.8282   26.7612   19.7862 C   0  0  1  0  0  0  0  0  0  0  0  0
   16.6226   26.4040   19.1611 O   0  0  0  0  0  0  0  0  0  0  0  0
   18.6673   25.5340   20.0955 C   0  0  2  0  0  0  0  0  0  0  0  0
   18.3048   24.9731   21.4001 N   0  0  0  0  0  0  0  0  0  0  0  0
   18.7641   25.3576   22.6188 C   0  0  0  0  0  0  0  0  0  0  0  0
   18.1648   24.7061   23.6495 N   0  0  0  0  0  0  0  0  0  0  0  0
   17.2907   23.8945   23.0253 C   0  0  0  0  0  0  0  0  0  0  0  0
   16.3822   23.0004   23.5909 C   0  0  0  0  0  0  0  0  0  0  0  0
   16.2899   22.8200   25.0043 N   0  0  0  0  0  0  0  0  0  0  0  0
   15.5685   22.2949   22.7488 N   0  0  0  0  0  0  0  0  0  0  0  0
   15.6234   22.4466   21.3873 C   0  0  0  0  0  0  0  0  0  0  0  0
   16.5345   23.3472   20.8063 C   0  0  0  0  0  0  0  0  0  0  0  0
   17.3630   24.0560   21.6760 C   0  0  0  0  0  0  0  0  0  0  0  0
   19.2183   28.2226   21.1237 H   0  0  0  0  0  0  0  0  0  0  0  0
   21.1107   29.0456   19.4815 H   0  0  0  0  0  0  0  0  0  0  0  0
   21.8525   27.7440   20.4627 H   0  0  0  0  0  0  0  0  0  0  0  0
   20.7529   26.8653   18.4176 H   0  0  0  0  0  0  0  0  0  0  0  0
   18.5662   28.6475   19.0273 H   0  0  0  0  0  0  0  0  0  0  0  0
   19.1461   27.7493   16.9965 H   0  0  0  0  0  0  0  0  0  0  0  0
   17.6301   27.3354   20.7225 H   0  0  0  0  0  0  0  0  0  0  0  0
   16.2311   27.2451   18.8083 H   0  0  0  0  0  0  0  0  0  0  0  0
   18.5248   24.7627   19.3051 H   0  0  0  0  0  0  0  0  0  0  0  0
   19.5228   26.1155   22.7630 H   0  0  0  0  0  0  0  0  0  0  0  0
   15.5741   22.1739   25.4046 H   0  0  0  0  0  0  0  0  0  0  0  0
   16.9308   23.3262   25.6551 H   0  0  0  0  0  0  0  0  0  0  0  0
   14.9597   21.8701   20.7570 H   0  0  0  0  0  0  0  0  0  0  0  0
   16.5826   23.4770   19.7336 H   0  0  0  0  0  0  0  0  0  0  0  0
  1  2  1  0
  3  2  1  0
  3  4  1  0
  3  5  1  0
  5  6  1  0
  5  7  1  0
  7  8  1  0
  4  9  1  0
  7  9  1  0
  9 10  1  0
 10 11  1  0
 11 12  2  0
 12 13  1  0
 13 14  2  0
 14 15  1  0
 14 16  1  0
 16 17  2  0
 17 18  1  0
 10 19  1  0
 13 19  1  0
 18 19  2  0
  1 20  1  0
  2 21  1  6
  2 22  1  0
  3 23  1  6
  5 24  1  6
  6 25  1  0
  7 26  1  1
  8 27  1  0
  9 28  1  6
 11 29  1  0
 15 30  1  0
 15 31  1  0
 17 32  1  0
 18 33  1  0
M  END
