7NML_I7B_B_201
     RDKit          3D

 24 24  0  0  0  0  0  0  0  0999 V2000
    6.4287   -3.4394  -20.6215 C   0  0  0  0  0  0  0  0  0  0  0  0
    6.5748   -4.7194  -21.1799 C   0  0  0  0  0  0  0  0  0  0  0  0
    5.9840   -5.8286  -20.5284 C   0  0  0  0  0  0  0  0  0  0  0  0
    5.2871   -5.6286  -19.3283 C   0  0  0  0  0  0  0  0  0  0  0  0
    5.1542   -4.3531  -18.7738 C   0  0  0  0  0  0  0  0  0  0  0  0
    5.7200   -3.2428  -19.4279 C   0  0  0  0  0  0  0  0  0  0  0  0
    7.4921   -4.8830  -22.6883 S   0  0  1  0  0  6  0  0  0  0  0  0
    6.4099   -5.1259  -24.0160 N   0  0  0  0  0  0  0  0  0  0  0  0
    8.2901   -3.6343  -22.9418 O   0  0  0  0  0  0  0  0  0  0  0  0
    8.4504   -6.0367  -22.5889 O   0  0  0  0  0  0  0  0  0  0  0  0
    5.5801   -1.6067  -18.7658 S   0  0  1  0  0  6  0  0  0  0  0  0
    6.6526   -1.4235  -17.4218 N   0  0  0  0  0  0  0  0  0  0  0  0
    5.9402   -0.5931  -19.8159 O   0  0  0  0  0  0  0  0  0  0  0  0
    4.1660   -1.3502  -18.3263 O   0  0  0  0  0  0  0  0  0  0  0  0
    6.0687   -7.1601  -21.0564 N   0  0  0  0  0  0  0  0  0  0  0  0
    4.2727   -4.2002  -17.2573 Cl  0  0  0  0  0  0  0  0  0  0  0  0
    6.8718   -2.5875  -21.1191 H   0  0  0  0  0  0  0  0  0  0  0  0
    4.8402   -6.4747  -18.8204 H   0  0  0  0  0  0  0  0  0  0  0  0
    6.8484   -5.8207  -24.6595 H   0  0  0  0  0  0  0  0  0  0  0  0
    5.5515   -5.5785  -23.6291 H   0  0  0  0  0  0  0  0  0  0  0  0
    6.9826   -2.3801  -17.1626 H   0  0  0  0  0  0  0  0  0  0  0  0
    6.0872   -1.0717  -16.6177 H   0  0  0  0  0  0  0  0  0  0  0  0
    5.6241   -7.9576  -20.5491 H   0  0  0  0  0  0  0  0  0  0  0  0
    6.5358   -7.3825  -21.9597 H   0  0  0  0  0  0  0  0  0  0  0  0
  1  2  2  0
  2  3  1  0
  3  4  2  0
  4  5  1  0
  1  6  1  0
  5  6  2  0
  2  7  1  0
  7  8  1  6
  7  9  2  0
  7 10  2  0
  6 11  1  0
 11 12  1  1
 11 13  2  0
 11 14  2  0
  3 15  1  0
  5 16  1  0
  1 17  1  0
  4 18  1  0
  8 19  1  0
  8 20  1  0
 12 21  1  0
 12 22  1  0
 15 23  1  0
 15 24  1  0
M  END
