7DUA_HJ0_B_1101
     RDKit          3D

 40 43  0  0  0  0  0  0  0  0999 V2000
   16.9751    8.0569  -13.4032 C   0  0  0  0  0  0  0  0  0  0  0  0
   18.3375    6.1034  -12.5439 C   0  0  0  0  0  0  0  0  0  0  0  0
   17.7781    5.0345  -11.8714 C   0  0  0  0  0  0  0  0  0  0  0  0
   18.7533    4.6773  -10.9634 C   0  0  0  0  0  0  0  0  0  0  0  0
   18.6377    3.6134   -9.9222 C   0  0  2  0  0  0  0  0  0  0  0  0
   16.4472    8.4063  -15.8630 C   0  0  0  0  0  0  0  0  0  0  0  0
   13.3888   11.5632  -15.1188 C   0  0  0  0  0  0  0  0  0  0  0  0
   14.4934   10.2589  -13.4505 C   0  0  0  0  0  0  0  0  0  0  0  0
   15.2154    9.6263  -14.4722 C   0  0  0  0  0  0  0  0  0  0  0  0
   14.5686    8.3987  -18.7695 C   0  0  1  0  0  0  0  0  0  0  0  0
   16.0089   10.5798  -18.7312 C   0  0  1  0  0  0  0  0  0  0  0  0
   17.0450    8.6695  -12.3042 O   0  0  0  0  0  0  0  0  0  0  0  0
   17.6975    6.8311  -13.6014 N   0  0  0  0  0  0  0  0  0  0  0  0
   19.8065    5.5059  -11.0921 N   0  0  0  0  0  0  0  0  0  0  0  0
   19.5653    6.3771  -12.0582 N   0  0  0  0  0  0  0  0  0  0  0  0
   16.1989    8.6405  -14.5110 C   0  0  0  0  0  0  0  0  0  0  0  0
   15.6945    9.2287  -16.6284 N   0  0  0  0  0  0  0  0  0  0  0  0
   14.9523    9.9548  -15.7750 C   0  0  0  0  0  0  0  0  0  0  0  0
   14.0549   10.9121  -16.1145 N   0  0  0  0  0  0  0  0  0  0  0  0
   13.6019   11.2292  -13.8095 N   0  0  0  0  0  0  0  0  0  0  0  0
   14.5813    9.8605  -12.0820 N   0  0  0  0  0  0  0  0  0  0  0  0
   15.6384    9.2511  -18.0898 C   0  0  1  0  0  0  0  0  0  0  0  0
   16.9809    9.4041  -18.7893 C   0  0  2  0  0  0  0  0  0  0  0  0
   16.8017    4.5906  -12.0149 H   0  0  0  0  0  0  0  0  0  0  0  0
   19.2623    3.8846   -9.0460 H   0  0  0  0  0  0  0  0  0  0  0  0
   18.9854    2.6423  -10.3325 H   0  0  0  0  0  0  0  0  0  0  0  0
   17.5805    3.5079   -9.5997 H   0  0  0  0  0  0  0  0  0  0  0  0
   17.1710    7.7059  -16.2603 H   0  0  0  0  0  0  0  0  0  0  0  0
   12.6732   12.3348  -15.3668 H   0  0  0  0  0  0  0  0  0  0  0  0
   13.5637    8.7498  -18.4551 H   0  0  0  0  0  0  0  0  0  0  0  0
   14.6386    8.4606  -19.8765 H   0  0  0  0  0  0  0  0  0  0  0  0
   14.6923    7.3395  -18.4622 H   0  0  0  0  0  0  0  0  0  0  0  0
   15.5170   10.8009  -19.7023 H   0  0  0  0  0  0  0  0  0  0  0  0
   16.3261   11.3817  -18.0307 H   0  0  0  0  0  0  0  0  0  0  0  0
   17.7494    6.4319  -14.5656 H   0  0  0  0  0  0  0  0  0  0  0  0
   20.6819    5.4883  -10.5233 H   0  0  0  0  0  0  0  0  0  0  0  0
   15.1538    9.0397  -11.7912 H   0  0  0  0  0  0  0  0  0  0  0  0
   13.9136   10.2576  -11.3844 H   0  0  0  0  0  0  0  0  0  0  0  0
   17.8629    9.5286  -18.1253 H   0  0  0  0  0  0  0  0  0  0  0  0
   17.0581    8.9399  -19.7955 H   0  0  0  0  0  0  0  0  0  0  0  0
  2  3  1  0
  3  4  2  0
  4  5  1  0
  8  9  1  0
  1 12  2  0
  2 13  1  0
  1 13  1  0
  4 14  1  0
 14 15  1  0
  2 15  2  0
  6 16  2  0
  1 16  1  0
  9 16  1  0
  6 17  1  0
 17 18  1  0
  9 18  2  0
 18 19  1  0
  7 19  2  0
  8 20  2  0
  7 20  1  0
  8 21  1  0
 11 22  1  0
 22 17  1  1
 10 22  1  0
 11 23  1  0
 22 23  1  0
  3 24  1  0
  5 25  1  1
  5 26  1  0
  5 27  1  0
  6 28  1  0
  7 29  1  0
 10 30  1  1
 10 31  1  0
 10 32  1  0
 11 33  1  6
 11 34  1  0
 13 35  1  0
 14 36  1  0
 21 37  1  0
 21 38  1  0
 23 39  1  1
 23 40  1  0
M  END
