7DIN_MPO_A_201
     RDKit          3D

 28 28  0  0  0  0  0  0  0  0999 V2000
   34.2874   -8.5453  -13.8054 S   0  0  2  0  0  6  0  0  0  0  0  0
   33.0801   -8.3779  -14.6841 O   0  0  0  0  0  0  0  0  0  0  0  0
   35.0840   -9.7300  -14.2769 O   0  0  0  0  0  0  0  0  0  0  0  0
   30.3315   -5.7114   -9.0519 O   0  0  0  0  0  0  0  0  0  0  0  0
   30.8540   -8.3978   -9.8366 N   0  0  0  0  0  0  0  0  0  0  0  0
   33.7721   -8.7698  -12.1044 C   0  0  2  0  0  0  0  0  0  0  0  0
   35.2334   -7.1602  -13.9175 O   0  0  0  0  0  0  0  0  0  0  0  0
   32.4198   -8.1111  -11.7970 C   0  0  1  0  0  0  0  0  0  0  0  0
   31.4777   -9.0407  -11.0126 C   0  0  2  0  0  0  0  0  0  0  0  0
   31.7681   -7.6587   -8.9418 C   0  0  2  0  0  0  0  0  0  0  0  0
   31.6725   -6.1400   -9.1346 C   0  0  1  0  0  0  0  0  0  0  0  0
   29.6108   -6.2404  -10.1428 C   0  0  2  0  0  0  0  0  0  0  0  0
   29.5334   -7.7721  -10.0591 C   0  0  2  0  0  0  0  0  0  0  0  0
   34.5581   -8.3746  -11.4261 H   0  0  0  0  0  0  0  0  0  0  0  0
   33.6826   -9.8608  -11.9164 H   0  0  0  0  0  0  0  0  0  0  0  0
   36.1414   -7.4877  -14.1402 H   0  0  0  0  0  0  0  0  0  0  0  0
   32.5922   -7.1708  -11.2353 H   0  0  0  0  0  0  0  0  0  0  0  0
   31.9526   -7.8566  -12.7688 H   0  0  0  0  0  0  0  0  0  0  0  0
   30.6795   -9.4162  -11.6900 H   0  0  0  0  0  0  0  0  0  0  0  0
   32.0386   -9.9352  -10.6696 H   0  0  0  0  0  0  0  0  0  0  0  0
   32.8227   -7.9831   -9.0819 H   0  0  0  0  0  0  0  0  0  0  0  0
   31.4934   -7.8972   -7.8918 H   0  0  0  0  0  0  0  0  0  0  0  0
   32.1412   -5.8186  -10.0906 H   0  0  0  0  0  0  0  0  0  0  0  0
   32.2472   -5.6468   -8.3226 H   0  0  0  0  0  0  0  0  0  0  0  0
   30.0406   -5.9023  -11.1104 H   0  0  0  0  0  0  0  0  0  0  0  0
   28.5771   -5.8365  -10.1056 H   0  0  0  0  0  0  0  0  0  0  0  0
   28.8754   -8.0426   -9.2056 H   0  0  0  0  0  0  0  0  0  0  0  0
   29.0479   -8.1664  -10.9786 H   0  0  0  0  0  0  0  0  0  0  0  0
  1  2  2  0
  1  3  2  0
  1  6  1  0
  1  7  1  1
  6  8  1  0
  5  9  1  0
  8  9  1  0
  5 10  1  0
  4 11  1  0
 10 11  1  0
  4 12  1  0
  5 13  1  0
 12 13  1  0
  6 14  1  1
  6 15  1  0
  7 16  1  0
  8 17  1  1
  8 18  1  0
  9 19  1  6
  9 20  1  0
 10 21  1  6
 10 22  1  0
 11 23  1  6
 11 24  1  0
 12 25  1  6
 12 26  1  0
 13 27  1  1
 13 28  1  0
M  END
