7X9K_8OG_A_202
     RDKit          3D

 24 26  0  0  0  0  0  0  0  0999 V2000
  -10.0740    0.6376   19.7803 O   0  0  0  0  0  0  0  0  0  0  0  0
  -10.2169    1.1031   21.3920 P   0  0  1  0  0  0  0  0  0  0  0  0
   -9.8044    2.5565   21.5233 O   0  0  0  0  0  0  0  0  0  0  0  0
  -11.8143    0.9593   21.8789 O   0  0  0  0  0  0  0  0  0  0  0  0
   -9.1606    0.2094   22.3653 O   0  0  0  0  0  0  0  0  0  0  0  0
   -9.4921    0.4551   23.6791 C   0  0  0  0  0  0  0  0  0  0  0  0
   -8.6247   -0.3015   24.6554 C   0  0  1  0  0  0  0  0  0  0  0  0
   -7.3233   -0.3928   24.1971 O   0  0  0  0  0  0  0  0  0  0  0  0
   -8.4497    0.4222   25.9740 C   0  0  1  0  0  0  0  0  0  0  0  0
   -9.5754    0.2960   26.7827 O   0  0  0  0  0  0  0  0  0  0  0  0
   -7.2646   -0.3835   26.5208 C   0  0  0  0  0  0  0  0  0  0  0  0
   -6.4726   -0.5466   25.2673 C   0  0  2  0  0  0  0  0  0  0  0  0
   -5.2958    0.2699   25.1787 N   0  0  0  0  0  0  0  0  0  0  0  0
   -4.9025    1.1605   24.2744 C   0  0  0  0  0  0  0  0  0  0  0  0
   -3.7044    1.6850   24.6183 N   0  0  0  0  0  0  0  0  0  0  0  0
   -3.3361    1.1108   25.7656 C   0  0  0  0  0  0  0  0  0  0  0  0
   -2.2218    1.2797   26.5372 C   0  0  0  0  0  0  0  0  0  0  0  0
   -1.3500    2.0900   26.1806 O   0  0  0  0  0  0  0  0  0  0  0  0
   -2.1173    0.5403   27.6789 N   0  0  0  0  0  0  0  0  0  0  0  0
   -3.0909   -0.3340   28.0337 C   0  0  0  0  0  0  0  0  0  0  0  0
   -2.8828   -1.0553   29.2439 N   0  0  0  0  0  0  0  0  0  0  0  0
   -4.1658   -0.4802   27.2657 N   0  0  0  0  0  0  0  0  0  0  0  0
   -4.3122    0.2339   26.1219 C   0  0  0  0  0  0  0  0  0  0  0  0
   -5.5327    1.4746   23.2579 O   0  0  0  0  0  0  0  0  0  0  0  0
  2  1  1  6
  2  3  2  0
  2  4  1  0
  2  5  1  0
  5  6  1  0
  7  6  1  6
  7  8  1  0
  7  9  1  0
  9 10  1  1
  9 11  1  0
  8 12  1  0
 11 12  1  0
 12 13  1  6
 13 14  1  0
 14 15  1  0
 15 16  1  0
 16 17  1  0
 17 18  2  0
 17 19  1  0
 19 20  1  0
 20 21  1  0
 20 22  2  0
 13 23  1  0
 16 23  2  0
 22 23  1  0
 14 24  2  0
M  END
$$$$
