7WDT_NGS_A_901
     RDKit          3D

 34 34  0  0  0  0  0  0  0  0999 V2000
   26.4517   -6.0311   -7.0036 C   0  0  2  0  0  0  0  0  0  0  0  0
   25.5518   -5.1482   -6.1103 C   0  0  1  0  0  0  0  0  0  0  0  0
   24.8969   -5.9897   -4.9860 C   0  0  2  0  0  0  0  0  0  0  0  0
   25.7182   -7.2596   -4.6595 C   0  0  1  0  0  0  0  0  0  0  0  0
   27.2243   -7.0167   -4.9434 C   0  0  1  0  0  0  0  0  0  0  0  0
   28.0690   -8.2473   -4.5786 C   0  0  1  0  0  0  0  0  0  0  0  0
   25.6668   -6.9757   -7.6834 O   0  0  0  0  0  0  0  0  0  0  0  0
   23.5998   -6.3584   -5.3824 O   0  0  0  0  0  0  0  0  0  0  0  0
   27.5026   -6.6912   -6.3037 O   0  0  0  0  0  0  0  0  0  0  0  0
   28.1200   -9.1399   -5.6670 O   0  0  0  0  0  0  0  0  0  0  0  0
   26.3288   -4.0354   -5.5463 N   0  0  0  0  0  0  0  0  0  0  0  0
   25.8291   -3.2153   -4.4806 C   0  0  0  0  0  0  0  0  0  0  0  0
   24.7659   -2.5536   -4.6279 O   0  0  0  0  0  0  0  0  0  0  0  0
   26.5887   -3.1158   -3.1982 C   0  0  2  0  0  0  0  0  0  0  0  0
   28.3947  -10.7031   -5.0722 S   0  0  2  0  0  6  0  0  0  0  0  0
   29.7096  -10.7541   -4.3452 O   0  0  0  0  0  0  0  0  0  0  0  0
   28.4524  -11.7735   -6.3661 O   0  0  0  0  0  0  0  0  0  0  0  0
   27.2875  -11.1185   -4.1429 O   0  0  0  0  0  0  0  0  0  0  0  0
   25.5285   -7.6037   -3.3101 O   0  0  0  0  0  0  0  0  0  0  0  0
   26.9200   -5.3615   -7.7606 H   0  0  0  0  0  0  0  0  0  0  0  0
   24.7587   -4.7152   -6.7617 H   0  0  0  0  0  0  0  0  0  0  0  0
   24.8281   -5.3599   -4.0670 H   0  0  0  0  0  0  0  0  0  0  0  0
   25.3815   -8.1017   -5.3105 H   0  0  0  0  0  0  0  0  0  0  0  0
   27.5757   -6.1735   -4.3073 H   0  0  0  0  0  0  0  0  0  0  0  0
   29.0884   -7.9092   -4.2837 H   0  0  0  0  0  0  0  0  0  0  0  0
   27.5912   -8.7499   -3.7075 H   0  0  0  0  0  0  0  0  0  0  0  0
   26.2187   -7.3102   -8.4377 H   0  0  0  0  0  0  0  0  0  0  0  0
   23.1739   -6.8039   -4.6040 H   0  0  0  0  0  0  0  0  0  0  0  0
   27.2509   -3.7801   -5.9685 H   0  0  0  0  0  0  0  0  0  0  0  0
   27.0496   -4.0969   -2.9591 H   0  0  0  0  0  0  0  0  0  0  0  0
   25.9128   -2.8261   -2.3657 H   0  0  0  0  0  0  0  0  0  0  0  0
   27.3871   -2.3517   -3.3002 H   0  0  0  0  0  0  0  0  0  0  0  0
   29.3974  -12.0672   -6.4097 H   0  0  0  0  0  0  0  0  0  0  0  0
   24.7070   -8.1592   -3.2667 H   0  0  0  0  0  0  0  0  0  0  0  0
  1  2  1  0
  2  3  1  0
  3  4  1  0
  4  5  1  0
  5  6  1  0
  1  7  1  0
  3  8  1  0
  1  9  1  0
  5  9  1  0
  6 10  1  0
  2 11  1  0
 11 12  1  0
 12 13  2  0
 12 14  1  0
 15 10  1  6
 15 16  2  0
 15 17  1  0
 15 18  2  0
  4 19  1  0
  1 20  1  6
  2 21  1  6
  3 22  1  1
  4 23  1  6
  5 24  1  1
  6 25  1  1
  6 26  1  0
  7 27  1  0
  8 28  1  0
 11 29  1  0
 14 30  1  1
 14 31  1  0
 14 32  1  0
 17 33  1  0
 19 34  1  0
M  END
