7Z1Q_NIO_A_301
     RDKit          3D

 14 14  0  0  0  0  0  0  0  0999 V2000
   -0.2295    9.8537   -6.7417 N   0  0  0  0  0  0  0  0  0  0  0  0
    0.3224    9.1925   -5.6891 C   0  0  0  0  0  0  0  0  0  0  0  0
    0.7714    9.9030   -4.5619 C   0  0  0  0  0  0  0  0  0  0  0  0
    0.6343   11.3006   -4.5557 C   0  0  0  0  0  0  0  0  0  0  0  0
    0.0641   11.9542   -5.6497 C   0  0  0  0  0  0  0  0  0  0  0  0
   -0.3666   11.2058   -6.7454 C   0  0  0  0  0  0  0  0  0  0  0  0
    1.3739    9.1997   -3.4089 C   0  0  0  0  0  0  0  0  0  0  0  0
    2.6232    9.2067   -3.2388 O   0  0  0  0  0  0  0  0  0  0  0  0
    0.5654    8.5225   -2.4995 O   0  0  0  0  0  0  0  0  0  0  0  0
    0.4091    8.1146   -5.7352 H   0  0  0  0  0  0  0  0  0  0  0  0
    0.9664   11.8877   -3.7088 H   0  0  0  0  0  0  0  0  0  0  0  0
   -0.0431   13.0313   -5.6481 H   0  0  0  0  0  0  0  0  0  0  0  0
   -0.8102   11.6996   -7.5996 H   0  0  0  0  0  0  0  0  0  0  0  0
    0.9677    8.0375   -1.7061 H   0  0  0  0  0  0  0  0  0  0  0  0
  1  2  4  0
  2  3  4  0
  3  4  4  0
  4  5  4  0
  1  6  4  0
  5  6  4  0
  3  7  1  0
  7  8  2  0
  7  9  1  0
  2 10  1  0
  4 11  1  0
  5 12  1  0
  6 13  1  0
  9 14  1  0
M  END
