1P62_GEO_B_302
     RDKit          3D

 29 30  0  0  0  0  0  0  0  0999 V2000
   69.2956   30.4058   20.5041 O   0  0  0  0  0  0  0  0  0  0  0  0
   68.9478   30.9286   19.2488 C   0  0  1  0  0  0  0  0  0  0  0  0
   69.8491   32.1196   18.8942 C   0  0  1  0  0  0  0  0  0  0  0  0
   69.2562   32.8415   17.8330 O   0  0  0  0  0  0  0  0  0  0  0  0
   69.0948   34.1789   18.2541 C   0  0  1  0  0  0  0  0  0  0  0  0
   67.8231   34.7432   17.7533 N   0  0  0  0  0  0  0  0  0  0  0  0
   66.7268   33.9357   17.6011 C   0  0  0  0  0  0  0  0  0  0  0  0
   65.5147   34.4575   17.1551 C   0  0  0  0  0  0  0  0  0  0  0  0
   65.4352   35.8206   16.8798 C   0  0  0  0  0  0  0  0  0  0  0  0
   66.5285   36.6031   17.0592 N   0  0  0  0  0  0  0  0  0  0  0  0
   67.7079   36.0873   17.4941 C   0  0  0  0  0  0  0  0  0  0  0  0
   68.6884   36.8629   17.6573 O   0  0  0  0  0  0  0  0  0  0  0  0
   64.2135   36.3996   16.4207 N   0  0  0  0  0  0  0  0  0  0  0  0
   69.1634   34.2198   19.7736 C   0  0  2  0  0  0  0  0  0  0  0  0
   67.9145   34.0118   20.3401 F   0  0  0  0  0  0  0  0  0  0  0  0
   69.6801   35.4242   20.2248 F   0  0  0  0  0  0  0  0  0  0  0  0
   70.0668   33.0593   20.0910 C   0  0  2  0  0  0  0  0  0  0  0  0
   71.4043   33.4884   20.1324 O   0  0  0  0  0  0  0  0  0  0  0  0
   70.1750   30.7948   20.7496 H   0  0  0  0  0  0  0  0  0  0  0  0
   69.0946   30.1299   18.4908 H   0  0  0  0  0  0  0  0  0  0  0  0
   67.8733   31.2254   19.2124 H   0  0  0  0  0  0  0  0  0  0  0  0
   70.8241   31.7173   18.5389 H   0  0  0  0  0  0  0  0  0  0  0  0
   69.9554   34.7506   17.8373 H   0  0  0  0  0  0  0  0  0  0  0  0
   66.7788   32.8786   17.8309 H   0  0  0  0  0  0  0  0  0  0  0  0
   64.6542   33.8120   17.0320 H   0  0  0  0  0  0  0  0  0  0  0  0
   63.3609   35.8132   16.2791 H   0  0  0  0  0  0  0  0  0  0  0  0
   64.1596   37.4229   16.2199 H   0  0  0  0  0  0  0  0  0  0  0  0
   69.7845   32.6064   21.0699 H   0  0  0  0  0  0  0  0  0  0  0  0
   71.9385   32.7144   20.4507 H   0  0  0  0  0  0  0  0  0  0  0  0
  1  2  1  0
  3  2  1  0
  3  4  1  0
  4  5  1  0
  5  6  1  0
  6  7  1  0
  7  8  2  0
  8  9  1  0
  9 10  2  0
  6 11  1  0
 10 11  1  0
 11 12  2  0
  9 13  1  0
  5 14  1  0
 14 15  1  1
 14 16  1  0
  3 17  1  0
 14 17  1  0
 17 18  1  0
  1 19  1  0
  2 20  1  6
  2 21  1  0
  3 22  1  6
  5 23  1  6
  7 24  1  0
  8 25  1  0
 13 26  1  0
 13 27  1  0
 17 28  1  1
 18 29  1  0
M  END
