6Z4N_Q7B_AAA_402
     RDKit          3D

 20 22  0  0  0  0  0  0  0  0999 V2000
   18.8976   19.7539   68.1111 C   0  0  0  0  0  0  0  0  0  0  0  0
   17.7202   20.4612   68.0205 C   0  0  0  0  0  0  0  0  0  0  0  0
   17.3943   21.2767   69.0856 C   0  0  0  0  0  0  0  0  0  0  0  0
   16.1258   22.0548   69.0168 C   0  0  0  0  0  0  0  0  0  0  0  0
   18.2287   21.3511   70.1630 C   0  0  0  0  0  0  0  0  0  0  0  0
   19.4195   20.6459   70.2721 C   0  0  0  0  0  0  0  0  0  0  0  0
   19.7399   19.8323   69.2045 C   0  0  0  0  0  0  0  0  0  0  0  0
   20.9691   19.0484   69.2155 C   0  0  0  0  0  0  0  0  0  0  0  0
   21.0378   17.8526   70.0790 C   0  0  1  0  0  0  0  0  0  0  0  0
   19.8779   16.8989   69.8101 C   0  0  0  0  0  0  0  0  0  0  0  0
   19.4514   16.6911   68.5063 O   0  0  0  0  0  0  0  0  0  0  0  0
   19.3413   16.3273   70.7824 O   0  0  0  0  0  0  0  0  0  0  0  0
   22.3512   17.0580   70.1637 C   0  0  0  0  0  0  0  0  0  0  0  0
   21.7192   17.6803   71.3508 C   0  0  1  0  0  0  0  0  0  0  0  0
   22.4538   18.6947   72.1039 C   0  0  0  0  0  0  0  0  0  0  0  0
   23.5062   19.3416   71.4483 C   0  0  0  0  0  0  0  0  0  0  0  0
   24.2381   20.3325   72.0692 C   0  0  0  0  0  0  0  0  0  0  0  0
   23.9286   20.6976   73.3683 C   0  0  0  0  0  0  0  0  0  0  0  0
   22.8839   20.0743   74.0566 C   0  0  0  0  0  0  0  0  0  0  0  0
   22.1503   19.0711   73.4137 C   0  0  0  0  0  0  0  0  0  0  0  0
  1  2  2  0
  2  3  1  0
  4  3  1  6
  3  5  2  0
  5  6  1  0
  6  7  2  0
  1  7  1  0
  8  7  1  6
  9  8  1  0
  9 10  1  1
 10 11  1  0
 10 12  2  0
  9 13  1  0
 13 14  1  1
  9 14  1  0
 14 15  1  6
 15 16  2  0
 16 17  1  0
 17 18  2  0
 18 19  1  0
 19 20  2  0
 15 20  1  0
M  END
$$$$
