
     RDKit          3D

 33 35  0  0  0  0  0  0  0  0999 V2000
   23.3563   -5.6573  -31.7120 C   0  0  0  0  0  0  0  0  0  0  0  0
   22.9805   -3.9856  -33.3870 C   0  0  0  0  0  0  0  0  0  0  0  0
   24.3739   -3.9739  -35.4940 C   0  0  0  0  0  0  0  0  0  0  0  0
   26.6195   -4.6928  -36.1558 C   0  0  0  0  0  0  0  0  0  0  0  0
   28.7180   -6.2629  -37.4173 C   0  0  0  0  0  0  0  0  0  0  0  0
   30.5518   -6.3640  -38.9895 C   0  0  0  0  0  0  0  0  0  0  0  0
   24.3203   -9.3626  -33.2507 C   0  0  1  0  0  0  0  0  0  0  0  0
   24.1266   -8.7434  -31.8823 C   0  0  1  0  0  0  0  0  0  0  0  0
   24.9915   -7.4779  -31.9883 C   0  0  2  0  0  0  0  0  0  0  0  0
   25.7920   -9.0825  -33.5102 C   0  0  1  0  0  0  0  0  0  0  0  0
   26.0990   -9.0077  -35.0046 C   0  0  0  0  0  0  0  0  0  0  0  0
   22.6937   -4.5136  -32.1360 C   0  0  0  0  0  0  0  0  0  0  0  0
   23.9425   -4.5946  -34.1884 C   0  0  0  0  0  0  0  0  0  0  0  0
   24.5688   -5.7486  -33.7179 C   0  0  0  0  0  0  0  0  0  0  0  0
   28.2918   -5.0492  -37.9744 C   0  0  0  0  0  0  0  0  0  0  0  0
   29.8495   -6.9204  -37.9138 C   0  0  0  0  0  0  0  0  0  0  0  0
   30.1178   -5.1713  -39.5780 C   0  0  0  0  0  0  0  0  0  0  0  0
   28.9910   -4.5188  -39.0636 C   0  0  0  0  0  0  0  0  0  0  0  0
   24.2571   -6.2819  -32.5100 N   0  0  0  0  0  4  0  0  0  0  0  0
   25.2461   -4.8564  -36.2462 N   0  0  0  0  0  0  0  0  0  0  0  0
   27.1598   -4.4369  -37.3957 N   0  0  0  0  0  0  0  0  0  0  0  0
   31.7462   -7.0382  -39.5085 N   0  0  0  0  0  4  0  0  0  0  0  0
   23.9641  -10.7330  -33.2635 O   0  0  0  0  0  0  0  0  0  0  0  0
   22.7562   -8.5572  -31.5685 O   0  0  0  0  0  0  0  0  0  0  0  0
   26.0833   -7.8205  -32.8633 O   0  0  0  0  0  0  0  0  0  0  0  0
   25.2289   -8.0671  -35.6100 O   0  0  0  0  0  0  0  0  0  0  0  0
   25.4584   -9.6591  -37.5853 O   0  0  0  0  0  0  0  0  0  0  0  0
   23.5577   -7.9254  -37.6426 O   0  0  0  0  0  0  0  0  0  0  0  0
   26.0377   -7.2597  -37.8621 O   0  0  0  0  0  0  0  0  0  0  0  0
   27.2236   -4.8191  -35.1008 O   0  0  0  0  0  0  0  0  0  0  0  0
   32.4119   -7.7220  -38.7155 O   0  0  0  0  0  1  0  0  0  0  0  0
   32.0121   -6.8858  -40.7104 O   0  0  0  0  0  0  0  0  0  0  0  0
   24.9429   -8.1966  -37.1784 P   0  0  0  0  0  5  0  0  0  0  0  0
  7  8  1  0
  8  9  1  0
  7 10  1  0
 10 11  1  6
  1 12  4  0
  2 12  4  0
  3 13  1  0
  2 13  4  0
 13 14  4  0
  5 15  4  0
  6 16  4  0
  5 16  4  0
  6 17  4  0
 17 18  4  0
 15 18  4  0
  9 19  1  6
 14 19  4  0
  1 19  4  0
  4 20  1  0
  3 20  1  0
 15 21  1  0
  4 21  1  0
  6 22  1  0
  7 23  1  1
  8 24  1  6
 10 25  1  0
  9 25  1  0
 11 26  1  0
  4 30  2  0
 22 31  1  0
 22 32  2  0
 26 33  1  0
 28 33  2  0
 27 33  1  0
 29 33  1  0
M  CHG  3  19   1  22   1  31  -1
M  END
