7KB1_WBJ_B_501
     RDKit          3D

 22 22  0  0  0  0  0  0  0  0999 V2000
    6.2673  -14.9581   32.8566 C   0  0  0  0  0  0  0  0  0  0  0  0
    5.1691   -9.4874   34.3673 C   0  0  0  0  0  0  0  0  0  0  0  0
    6.2263  -10.2553   27.9028 C   0  0  0  0  0  0  0  0  0  0  0  0
    5.5814   -7.3684   28.5352 C   0  0  0  0  0  0  0  0  0  0  0  0
    5.7429   -8.2079   29.5362 C   0  0  0  0  0  0  0  0  0  0  0  0
    5.9192   -9.7060   29.2906 C   0  0  0  0  0  0  0  0  0  0  0  0
    5.5357  -10.0809   31.5787 C   0  0  0  0  0  0  0  0  0  0  0  0
    5.6418  -11.2307   32.5831 C   0  0  0  0  0  0  0  0  0  0  0  0
    5.9056  -12.5566   32.2199 C   0  0  0  0  0  0  0  0  0  0  0  0
    5.9803  -13.5058   33.2245 C   0  0  0  0  0  0  0  0  0  0  0  0
    5.5590  -11.9418   34.8547 C   0  0  0  0  0  0  0  0  0  0  0  0
    5.4658  -10.9232   33.9245 C   0  0  0  0  0  0  0  0  0  0  0  0
    5.8249  -10.5145   30.2289 N   0  0  0  0  0  0  0  0  0  0  0  0
    5.8084  -13.1859   34.4915 N   0  0  0  0  0  0  0  0  0  0  0  0
    6.0999  -12.9774   30.9012 O   0  0  0  0  0  0  0  0  0  0  0  0
    3.8164   -9.4228   34.7292 O   0  0  0  0  0  0  0  0  0  0  0  0
    3.3848   -8.3492   32.4247 O   0  0  0  0  0  0  0  0  0  0  0  0
    1.9143  -10.1797   33.1623 O   0  0  0  0  0  0  0  0  0  0  0  0
    1.7557   -7.9701   34.2555 O   0  0  0  0  0  0  0  0  0  0  0  0
    6.0873   -9.5262   26.8855 O   0  0  0  0  0  0  0  0  0  0  0  0
    6.6074  -11.4500   27.7855 O   0  0  0  0  0  0  0  0  0  0  0  0
    2.6940   -8.9701   33.6128 P   0  0  1  0  0  0  0  0  0  0  0  0
  4  5  2  0
  5  6  1  0
  3  6  1  0
  7  8  1  0
  8  9  2  0
  1 10  1  0
  9 10  1  0
 11 12  2  0
  2 12  1  0
  8 12  1  0
  7 13  1  0
  6 13  2  0
 11 14  1  0
 10 14  2  0
  9 15  1  0
  2 16  1  0
  3 20  1  0
  3 21  2  0
 19 22  2  0
 16 22  1  0
 22 17  1  6
 18 22  1  0
M  END
