1OF1_SCT_B_500
     RDKit          3D

 34 36  0  0  0  0  0  0  0  0999 V2000
   30.6402   26.9718    3.9633 O   0  0  0  0  0  0  0  0  0  0  0  0
   34.9549   25.5727    4.3823 O   0  0  0  0  0  0  0  0  0  0  0  0
   32.7314   28.9244    7.0774 O   0  0  0  0  0  0  0  0  0  0  0  0
   33.9777   33.0144    8.5686 O   0  0  0  0  0  0  0  0  0  0  0  0
   34.1554   30.1423    5.7652 N   0  0  0  0  0  0  0  0  0  0  0  0
   33.3332   30.9733    7.8256 N   0  0  0  0  0  0  0  0  0  0  0  0
   33.0538   27.0562    4.0873 C   0  0  2  0  0  0  0  0  0  0  0  0
   34.2590   26.6489    4.9546 C   0  0  2  0  0  0  0  0  0  0  0  0
   35.1625   27.8766    5.0400 C   0  0  2  0  0  0  0  0  0  0  0  0
   34.2661   29.0738    4.7579 C   0  0  1  0  0  0  0  0  0  0  0  0
   32.9387   28.5782    4.2056 C   0  0  1  0  0  0  0  0  0  0  0  0
   31.7609   26.3613    4.5448 C   0  0  1  0  0  0  0  0  0  0  0  0
   33.3880   29.9857    6.8911 C   0  0  0  0  0  0  0  0  0  0  0  0
   33.8663   29.4062    3.3244 C   0  0  1  0  0  0  0  0  0  0  0  0
   34.0448   32.1217    7.6802 C   0  0  0  0  0  0  0  0  0  0  0  0
   34.8525   32.3034    6.5509 C   0  0  0  0  0  0  0  0  0  0  0  0
   34.9051   31.2724    5.6071 C   0  0  0  0  0  0  0  0  0  0  0  0
   35.6850   33.5434    6.3784 C   0  0  1  0  0  0  0  0  0  0  0  0
   30.1679   26.2668    3.4480 H   0  0  0  0  0  0  0  0  0  0  0  0
   34.2688   24.9281    4.0679 H   0  0  0  0  0  0  0  0  0  0  0  0
   32.7390   30.8424    8.6764 H   0  0  0  0  0  0  0  0  0  0  0  0
   33.2466   26.7849    3.0244 H   0  0  0  0  0  0  0  0  0  0  0  0
   33.9319   26.3886    5.9896 H   0  0  0  0  0  0  0  0  0  0  0  0
   35.9705   27.8346    4.2770 H   0  0  0  0  0  0  0  0  0  0  0  0
   35.6260   27.9536    6.0474 H   0  0  0  0  0  0  0  0  0  0  0  0
   32.0377   29.0792    4.6229 H   0  0  0  0  0  0  0  0  0  0  0  0
   31.6658   26.4266    5.6502 H   0  0  0  0  0  0  0  0  0  0  0  0
   31.7902   25.2818    4.2719 H   0  0  0  0  0  0  0  0  0  0  0  0
   33.5035   30.4420    3.1572 H   0  0  0  0  0  0  0  0  0  0  0  0
   34.4113   28.8397    2.5393 H   0  0  0  0  0  0  0  0  0  0  0  0
   35.5488   31.3772    4.7407 H   0  0  0  0  0  0  0  0  0  0  0  0
   36.1702   33.5692    5.3794 H   0  0  0  0  0  0  0  0  0  0  0  0
   35.0467   34.4472    6.4726 H   0  0  0  0  0  0  0  0  0  0  0  0
   36.4738   33.5713    7.1590 H   0  0  0  0  0  0  0  0  0  0  0  0
  8  2  1  0
  7  8  1  0
  8  9  1  0
 10  5  1  1
  9 10  1  0
  7 11  1  0
 10 11  1  0
  1 12  1  0
  7 12  1  0
  3 13  2  0
  5 13  1  0
  6 13  1  0
 10 14  1  0
 11 14  1  0
  4 15  2  0
  6 15  1  0
 15 16  1  0
  5 17  1  0
 16 17  2  0
 16 18  1  0
  1 19  1  0
  2 20  1  0
  6 21  1  0
  7 22  1  6
  8 23  1  1
  9 24  1  6
  9 25  1  0
 11 26  1  1
 12 27  1  1
 12 28  1  0
 14 29  1  6
 14 30  1  0
 17 31  1  0
 18 32  1  6
 18 33  1  0
 18 34  1  0
M  END
