
     RDKit          3D

 17 18  0  0  0  0  0  0  0  0999 V2000
    9.8823    2.3225   34.3650 N   0  0  0  0  0  0  0  0  0  0  0  0
   10.0418    1.8908   33.1572 C   0  0  0  0  0  0  0  0  0  0  0  0
   11.2806    1.5745   32.7039 N   0  0  0  0  0  0  0  0  0  0  0  0
    9.0190    1.7383   32.2791 N   0  0  0  0  0  0  0  0  0  0  0  0
    7.7282    2.0189   32.6080 C   0  0  0  0  0  0  0  0  0  0  0  0
    6.8059    1.9078   31.8033 O   0  0  0  0  0  0  0  0  0  0  0  0
    7.5116    2.4945   34.0033 C   0  0  0  0  0  0  0  0  0  0  0  0
    8.6150    2.6403   34.7854 C   0  0  0  0  0  0  0  0  0  0  0  0
    6.2091    2.7721   34.4364 N   0  0  0  0  0  0  0  0  0  0  0  0
    8.4468    3.1363   36.0864 N   0  0  0  0  0  0  0  0  0  0  0  0
    6.0465    3.5693   35.6686 C   0  0  2  0  0  0  0  0  0  0  0  0
    7.1090    3.1074   36.7077 C   0  0  0  0  0  0  0  0  0  0  0  0
    4.5798    3.5436   36.1620 C   0  0  1  0  0  0  0  0  0  0  0  0
    4.0907    2.1900   36.1487 O   0  0  0  0  0  0  0  0  0  0  0  0
    4.3707    4.1850   37.5509 C   0  0  2  0  0  0  0  0  0  0  0  0
    2.9402    4.6680   37.7837 C   0  0  0  0  0  0  0  0  0  0  0  0
    5.2624    5.2997   37.6936 O   0  0  0  0  0  0  0  0  0  0  0  0
  1  2  4  0
  2  3  1  0
  2  4  4  0
  4  5  4  0
  5  6  2  0
  5  7  4  0
  1  8  4  0
  7  8  4  0
  7  9  1  0
  8 10  1  0
  9 11  1  0
 10 12  1  0
 11 12  1  1
 11 13  1  0
 13 14  1  1
 13 15  1  0
 15 16  1  6
 15 17  1  0
M  END
