7M6K_YRJ_A_701
     RDKit          3D

 55 57  0  0  0  0  0  0  0  0999 V2000
   15.3965   -4.0460  -32.3551 C   0  0  0  0  0  0  0  0  0  0  0  0
   16.3038   -5.5292  -30.6864 C   0  0  0  0  0  0  0  0  0  0  0  0
   16.8611   -4.6632  -28.3793 C   0  0  1  0  0  0  0  0  0  0  0  0
   18.7963   -3.9258  -26.9345 C   0  0  0  0  0  0  0  0  0  0  0  0
   21.5225   -6.2897  -25.8985 C   0  0  0  0  0  0  0  0  0  0  0  0
   21.3147   -7.0059  -23.5800 C   0  0  0  0  0  0  0  0  0  0  0  0
   14.4152   -0.4048  -33.8250 C   0  0  1  0  0  0  0  0  0  0  0  0
   15.4935   -1.3262  -33.2994 C   0  0  2  0  0  0  0  0  0  0  0  0
   14.9934   -1.6676  -31.8988 C   0  0  2  0  0  0  0  0  0  0  0  0
   13.1797   -0.8519  -33.0279 C   0  0  1  0  0  0  0  0  0  0  0  0
   12.1951   -1.6671  -33.8794 C   0  0  2  0  0  0  0  0  0  0  0  0
   15.8217   -5.3206  -31.9769 C   0  0  0  0  0  0  0  0  0  0  0  0
   16.3433   -4.4666  -29.7783 C   0  0  0  0  0  0  0  0  0  0  0  0
   15.9322   -3.1968  -30.2043 C   0  0  0  0  0  0  0  0  0  0  0  0
   20.5283   -5.3161  -25.7022 C   0  0  0  0  0  0  0  0  0  0  0  0
   21.9058   -7.1312  -24.8501 C   0  0  0  0  0  0  0  0  0  0  0  0
   20.3390   -6.0148  -23.3809 C   0  0  0  0  0  0  0  0  0  0  0  0
   19.9557   -5.1748  -24.4307 C   0  0  0  0  0  0  0  0  0  0  0  0
   15.4714   -2.9974  -31.4790 N   0  0  0  0  0  4  0  0  0  0  0  0
   18.1673   -4.0260  -28.2176 N   0  0  0  0  0  0  0  0  0  0  0  0
   20.1315   -4.4231  -26.7573 N   0  0  0  0  0  0  0  0  0  0  0  0
   21.7084   -7.8693  -22.4979 N   0  0  0  0  0  4  0  0  0  0  0  0
   14.6992    0.9406  -33.5300 O   0  0  0  0  0  0  0  0  0  0  0  0
   16.7817   -0.7546  -33.3105 O   0  0  0  0  0  0  0  0  0  0  0  0
   13.5829   -1.6260  -31.9134 O   0  0  0  0  0  0  0  0  0  0  0  0
   10.9980   -0.9436  -34.0547 O   0  0  0  0  0  0  0  0  0  0  0  0
    8.8135    0.1184  -32.7040 O   0  0  0  0  0  0  0  0  0  0  0  0
    9.7187   -2.2837  -32.1710 O   0  0  0  0  0  0  0  0  0  0  0  0
   11.1982   -0.2800  -31.3808 O   0  0  0  0  0  0  0  0  0  0  0  0
   18.1905   -3.3670  -25.9796 O   0  0  0  0  0  0  0  0  0  0  0  0
   21.8607   -9.2217  -22.7020 O   0  0  0  0  0  1  0  0  0  0  0  0
   21.9127   -7.4062  -21.3564 O   0  0  0  0  0  0  0  0  0  0  0  0
   10.1636   -0.8939  -32.5696 P   0  0  1  0  0  5  0  0  0  0  0  0
   15.0102   -3.9016  -33.3570 H   0  0  0  0  0  0  0  0  0  0  0  0
   16.6363   -6.5169  -30.3938 H   0  0  0  0  0  0  0  0  0  0  0  0
   16.1402   -4.2193  -27.6577 H   0  0  0  0  0  0  0  0  0  0  0  0
   16.9474   -5.7466  -28.1447 H   0  0  0  0  0  0  0  0  0  0  0  0
   22.0244   -6.3848  -26.8515 H   0  0  0  0  0  0  0  0  0  0  0  0
   14.2770   -0.5385  -34.9251 H   0  0  0  0  0  0  0  0  0  0  0  0
   15.5105   -2.2449  -33.9273 H   0  0  0  0  0  0  0  0  0  0  0  0
   15.3310   -0.8942  -31.1707 H   0  0  0  0  0  0  0  0  0  0  0  0
   12.6314    0.0408  -32.6507 H   0  0  0  0  0  0  0  0  0  0  0  0
   11.9841   -2.6299  -33.3624 H   0  0  0  0  0  0  0  0  0  0  0  0
   12.6964   -1.8820  -34.8518 H   0  0  0  0  0  0  0  0  0  0  0  0
   15.7732   -6.1421  -32.6798 H   0  0  0  0  0  0  0  0  0  0  0  0
   15.9831   -2.3725  -29.5056 H   0  0  0  0  0  0  0  0  0  0  0  0
   22.6723   -7.8735  -25.0307 H   0  0  0  0  0  0  0  0  0  0  0  0
   19.8711   -5.8877  -22.4135 H   0  0  0  0  0  0  0  0  0  0  0  0
   19.2025   -4.4171  -24.2556 H   0  0  0  0  0  0  0  0  0  0  0  0
   18.6701   -3.6466  -29.0520 H   0  0  0  0  0  0  0  0  0  0  0  0
   20.8752   -4.0481  -27.3899 H   0  0  0  0  0  0  0  0  0  0  0  0
   15.6256    1.1129  -33.8432 H   0  0  0  0  0  0  0  0  0  0  0  0
   17.4506   -1.4751  -33.1756 H   0  0  0  0  0  0  0  0  0  0  0  0
    8.8534    0.4675  -33.6298 H   0  0  0  0  0  0  0  0  0  0  0  0
   11.1064    0.7040  -31.4498 H   0  0  0  0  0  0  0  0  0  0  0  0
  7  8  1  0
  8  9  1  0
  7 10  1  0
 10 11  1  0
  1 12  2  0
  2 12  1  0
  3 13  1  0
  2 13  2  0
 13 14  1  0
  5 15  2  0
  6 16  2  0
  5 16  1  0
  6 17  1  0
 17 18  2  0
 15 18  1  0
  9 19  1  0
 14 19  2  0
  1 19  1  0
  4 20  1  0
  3 20  1  0
 15 21  1  0
  4 21  1  0
  6 22  1  0
  7 23  1  0
  8 24  1  0
 10 25  1  0
  9 25  1  0
 11 26  1  0
  4 30  2  0
 22 31  1  0
 22 32  2  0
 33 26  1  6
 28 33  2  0
 27 33  1  0
 29 33  1  0
  1 34  1  0
  2 35  1  0
  3 36  1  1
  3 37  1  0
  5 38  1  0
  7 39  1  6
  8 40  1  6
  9 41  1  1
 10 42  1  1
 11 43  1  1
 11 44  1  0
 12 45  1  0
 14 46  1  0
 16 47  1  0
 17 48  1  0
 18 49  1  0
 20 50  1  0
 21 51  1  0
 23 52  1  0
 24 53  1  0
 27 54  1  0
 29 55  1  0
M  CHG  3  19   1  22   1  31  -1
M  END
