7Q5I_I0F_AAA_901
     RDKit          3D

 50 51  0  0  0  0  0  0  0  0999 V2000
   33.8185   25.4772   28.3057 N   0  0  0  0  0  0  0  0  0  0  0  0
   30.8070   22.6518   27.6399 C   0  0  1  0  0  0  0  0  0  0  0  0
   31.7389   22.5418   28.8860 C   0  0  1  0  0  0  0  0  0  0  0  0
   32.5881   21.2575   28.8639 C   0  0  1  0  0  0  0  0  0  0  0  0
   33.8432   26.4832   29.3339 C   0  0  0  0  0  0  0  0  0  0  0  0
   34.4945   26.2280   30.6402 C   0  0  0  0  0  0  0  0  0  0  0  0
   35.4147   24.6141   32.3255 C   0  0  0  0  0  0  0  0  0  0  0  0
   36.5462   23.9459   34.8347 C   0  0  0  0  0  0  0  0  0  0  0  0
   36.5399   25.3029   32.8047 C   0  0  0  0  0  0  0  0  0  0  0  0
   36.3257   22.9376   37.1512 C   0  0  1  0  0  0  0  0  0  0  0  0
   38.5424   23.8934   36.3987 C   0  0  2  0  0  0  0  0  0  0  0  0
   37.1329   23.5950   36.1158 N   0  0  0  0  0  0  0  0  0  0  0  0
   37.1040   24.9675   34.0384 C   0  0  0  0  0  0  0  0  0  0  0  0
   35.3979   23.2809   34.3569 C   0  0  0  0  0  0  0  0  0  0  0  0
   34.8362   23.6190   33.1227 C   0  0  0  0  0  0  0  0  0  0  0  0
   34.7732   24.9705   31.0382 C   0  0  0  0  0  0  0  0  0  0  0  0
   34.9249   27.3716   31.4144 C   0  0  0  0  0  0  0  0  0  0  0  0
   35.2697   28.2876   32.0320 N   0  0  0  0  0  0  0  0  0  0  0  0
   33.2784   27.5939   29.1365 O   0  0  0  0  0  0  0  0  0  0  0  0
   32.6630   24.6095   28.0695 C   0  0  2  0  0  0  0  0  0  0  0  0
   32.6035   23.6544   29.1178 O   0  0  0  0  0  0  0  0  0  0  0  0
   33.2417   21.0598   30.0891 O   0  0  0  0  0  0  0  0  0  0  0  0
   29.8116   23.6161   27.8794 O   0  0  0  0  0  0  0  0  0  0  0  0
   31.5901   23.0355   26.3661 C   0  0  2  0  0  0  0  0  0  0  0  0
   32.0166   21.8691   25.7085 O   0  0  0  0  0  0  0  0  0  0  0  0
   32.8093   23.9348   26.6875 C   0  0  1  0  0  0  0  0  0  0  0  0
   33.0015   24.8882   25.6712 O   0  0  0  0  0  0  0  0  0  0  0  0
   34.6195   25.4050   27.6389 H   0  0  0  0  0  0  0  0  0  0  0  0
   30.3024   21.6732   27.4593 H   0  0  0  0  0  0  0  0  0  0  0  0
   31.0798   22.4619   29.7782 H   0  0  0  0  0  0  0  0  0  0  0  0
   31.9486   20.3763   28.6533 H   0  0  0  0  0  0  0  0  0  0  0  0
   33.3377   21.3191   28.0420 H   0  0  0  0  0  0  0  0  0  0  0  0
   36.9707   26.1180   32.2371 H   0  0  0  0  0  0  0  0  0  0  0  0
   36.9903   22.4616   37.9021 H   0  0  0  0  0  0  0  0  0  0  0  0
   35.6685   23.6608   37.6786 H   0  0  0  0  0  0  0  0  0  0  0  0
   35.6712   22.1687   36.6884 H   0  0  0  0  0  0  0  0  0  0  0  0
   39.1420   22.9604   36.3539 H   0  0  0  0  0  0  0  0  0  0  0  0
   38.6365   24.3520   37.4060 H   0  0  0  0  0  0  0  0  0  0  0  0
   38.9641   24.6123   35.6647 H   0  0  0  0  0  0  0  0  0  0  0  0
   37.9669   25.5270   34.3714 H   0  0  0  0  0  0  0  0  0  0  0  0
   34.9312   22.4906   34.9279 H   0  0  0  0  0  0  0  0  0  0  0  0
   33.9531   23.0917   32.7821 H   0  0  0  0  0  0  0  0  0  0  0  0
   34.5959   24.1505   30.3531 H   0  0  0  0  0  0  0  0  0  0  0  0
   31.7353   25.2218   28.0958 H   0  0  0  0  0  0  0  0  0  0  0  0
   33.2406   21.9356   30.5569 H   0  0  0  0  0  0  0  0  0  0  0  0
   29.0148   23.1327   28.2220 H   0  0  0  0  0  0  0  0  0  0  0  0
   30.8854   23.5801   25.6935 H   0  0  0  0  0  0  0  0  0  0  0  0
   32.9191   22.0608   25.3414 H   0  0  0  0  0  0  0  0  0  0  0  0
   33.7242   23.3028   26.7270 H   0  0  0  0  0  0  0  0  0  0  0  0
   33.7324   25.4941   25.9625 H   0  0  0  0  0  0  0  0  0  0  0  0
  2  3  1  0
  3  4  1  0
  1  5  1  0
  5  6  1  0
  7  9  2  0
  8 12  1  0
 10 12  1  0
 11 12  1  0
  9 13  1  0
  8 13  2  0
  8 14  1  0
  7 15  1  0
 14 15  2  0
  6 16  2  0
  7 16  1  0
  6 17  1  0
 17 18  3  0
  5 19  2  0
 20  1  1  0
  3 21  1  0
 20 21  1  0
  4 22  1  0
  2 23  1  0
  2 24  1  0
 24 25  1  0
 24 26  1  0
 20 26  1  0
 26 27  1  0
  1 28  1  0
  2 29  1  6
  3 30  1  1
  4 31  1  6
  4 32  1  0
  9 33  1  0
 10 34  1  1
 10 35  1  0
 10 36  1  0
 11 37  1  1
 11 38  1  0
 11 39  1  0
 13 40  1  0
 14 41  1  0
 15 42  1  0
 16 43  1  0
 20 44  1  6
 22 45  1  0
 23 46  1  0
 24 47  1  6
 25 48  1  0
 26 49  1  1
 27 50  1  0
M  END
