7SZA_DUI_A_501
     RDKit          3D

 20 22  0  0  0  0  0  0  0  0999 V2000
  -57.3223  -11.4154   12.7741 C   0  0  0  0  0  0  0  0  0  0  0  0
  -56.7935  -10.4916   11.8927 C   0  0  0  0  0  0  0  0  0  0  0  0
  -55.7509   -9.6542   12.2477 C   0  0  0  0  0  0  0  0  0  0  0  0
  -55.2140   -9.7341   13.5175 C   0  0  0  0  0  0  0  0  0  0  0  0
  -54.1580   -9.0524   14.2309 C   0  0  0  0  0  0  0  0  0  0  0  0
  -53.0901   -9.1195   16.5615 C   0  0  2  0  0  0  0  0  0  0  0  0
  -50.4081   -7.6798   18.9753 O   0  0  0  0  0  0  0  0  0  0  0  0
  -51.3709   -9.9245   15.0622 O   0  0  0  0  0  0  0  0  0  0  0  0
  -54.0401   -9.5683   15.5697 N   0  0  0  0  0  0  0  0  0  0  0  0
  -53.3646   -7.7229   17.0367 C   0  0  0  0  0  0  0  0  0  0  0  0
  -52.1254   -6.9549   17.4335 C   0  0  0  0  0  0  0  0  0  0  0  0
  -50.6633   -8.9151   17.0232 N   0  0  0  0  0  0  0  0  0  0  0  0
  -57.3504  -12.4579   14.9336 N   0  0  0  0  0  0  0  0  0  0  0  0
  -56.7967  -11.5022   14.0353 C   0  0  0  0  0  0  0  0  0  0  0  0
  -53.4227   -8.1336   13.7833 O   0  0  0  0  0  0  0  0  0  0  0  0
  -51.7061   -9.3621   16.1341 C   0  0  0  0  0  0  0  0  0  0  0  0
  -55.0416  -10.5833   15.6767 C   0  0  0  0  0  0  0  0  0  0  0  0
  -55.7520  -10.6618   14.3883 C   0  0  0  0  0  0  0  0  0  0  0  0
  -51.0205   -7.8286   17.9030 C   0  0  0  0  0  0  0  0  0  0  0  0
  -55.2467  -11.2692   16.7152 O   0  0  0  0  0  0  0  0  0  0  0  0
  1  2  2  0
  2  3  1  0
  3  4  2  0
  4  5  1  0
  5  9  1  0
  6  9  1  6
  6 10  1  0
 10 11  1  6
  1 14  1  0
 13 14  1  0
  5 15  2  0
 12 16  1  0
  8 16  2  0
  6 16  1  0
  9 17  1  0
  4 18  1  0
 17 18  1  0
 14 18  2  0
  7 19  2  0
 12 19  1  0
 11 19  1  6
 17 20  2  0
M  END
$$$$
