7L6D_BMF_A_501
     RDKit          3D

 48 50  0  0  0  0  0  0  0  0999 V2000
    9.4758   10.7898   22.4796 C   0  0  0  0  0  0  0  0  0  0  0  0
    7.5681    9.2392   22.5956 N   0  0  0  0  0  0  0  0  0  0  0  0
    7.7933    8.9166   25.3601 C   0  0  0  0  0  0  0  0  0  0  0  0
    6.9240    9.0105   27.7350 C   0  0  0  0  0  0  0  0  0  0  0  0
    5.0753   10.5913   29.3020 C   0  0  2  0  0  0  0  0  0  0  0  0
    8.6900    9.7433   24.6560 C   0  0  0  0  0  0  0  0  0  0  0  0
    5.2785    7.5411   21.4654 C   0  0  2  0  0  0  0  0  0  0  0  0
   11.1778   12.5208   22.3758 C   0  0  0  0  0  0  0  0  0  0  0  0
   12.1028   13.3715   20.2039 C   0  0  2  0  0  0  0  0  0  0  0  0
   11.1832   12.4616   20.9735 C   0  0  0  0  0  0  0  0  0  0  0  0
   10.3220   11.5556   20.3111 C   0  0  0  0  0  0  0  0  0  0  0  0
   10.3229   11.4612   18.8733 N   0  0  0  0  0  0  0  0  0  0  0  0
    9.1183   10.5921   17.9750 S   0  0  1  0  0  6  0  0  0  0  0  0
    9.5221    8.8587   17.9146 C   0  0  1  0  0  0  0  0  0  0  0  0
    7.7922   10.7461   18.6647 O   0  0  0  0  0  0  0  0  0  0  0  0
    9.0129   11.1507   16.5840 O   0  0  0  0  0  0  0  0  0  0  0  0
    9.4812   10.7267   21.0761 C   0  0  0  0  0  0  0  0  0  0  0  0
    8.5563    9.9170   23.2528 C   0  0  0  0  0  0  0  0  0  0  0  0
    6.7502    8.4527   23.2877 N   0  0  0  0  0  0  0  0  0  0  0  0
    6.8195    8.2626   24.6038 C   0  0  0  0  0  0  0  0  0  0  0  0
    7.9449    8.7153   26.7739 N   0  0  0  0  0  0  0  0  0  0  0  0
    7.2791    9.6421   28.9320 O   0  0  0  0  0  0  0  0  0  0  0  0
    6.5808   10.7657   29.4653 C   0  0  2  0  0  0  0  0  0  0  0  0
    5.7171    8.7335   27.4922 O   0  0  0  0  0  0  0  0  0  0  0  0
    5.8999    7.3671   25.0157 N   0  0  0  0  0  0  0  0  0  0  0  0
    5.2255    6.9946   23.9276 N   0  0  0  0  0  0  0  0  0  0  0  0
    5.7570    7.6576   22.8745 C   0  0  0  0  0  0  0  0  0  0  0  0
   10.3294   11.7017   23.1205 C   0  0  0  0  0  0  0  0  0  0  0  0
    4.8163   10.5766   28.2224 H   0  0  0  0  0  0  0  0  0  0  0  0
    4.5327   11.4293   29.7869 H   0  0  0  0  0  0  0  0  0  0  0  0
    4.7529    9.6335   29.7625 H   0  0  0  0  0  0  0  0  0  0  0  0
    9.4884   10.2307   25.2000 H   0  0  0  0  0  0  0  0  0  0  0  0
    6.1459    7.5513   20.7728 H   0  0  0  0  0  0  0  0  0  0  0  0
    4.6111    8.3959   21.2297 H   0  0  0  0  0  0  0  0  0  0  0  0
    4.7185    6.5922   21.3290 H   0  0  0  0  0  0  0  0  0  0  0  0
   11.8254   13.2136   22.8990 H   0  0  0  0  0  0  0  0  0  0  0  0
   11.8636   14.4322   20.4296 H   0  0  0  0  0  0  0  0  0  0  0  0
   11.9852   13.1877   19.1155 H   0  0  0  0  0  0  0  0  0  0  0  0
   13.1673   13.2010   20.4723 H   0  0  0  0  0  0  0  0  0  0  0  0
   11.0052   12.0195   18.3150 H   0  0  0  0  0  0  0  0  0  0  0  0
    8.9278    8.3676   17.1168 H   0  0  0  0  0  0  0  0  0  0  0  0
   10.6011    8.7262   17.6964 H   0  0  0  0  0  0  0  0  0  0  0  0
    9.2848    8.3898   18.8917 H   0  0  0  0  0  0  0  0  0  0  0  0
    8.8450   10.0068   20.5813 H   0  0  0  0  0  0  0  0  0  0  0  0
    8.8902    8.4604   27.1386 H   0  0  0  0  0  0  0  0  0  0  0  0
    6.8393   10.9102   30.5370 H   0  0  0  0  0  0  0  0  0  0  0  0
    6.8964   11.6738   28.9098 H   0  0  0  0  0  0  0  0  0  0  0  0
   10.3297   11.8034   24.1975 H   0  0  0  0  0  0  0  0  0  0  0  0
  3  6  2  0
  9 10  1  0
  8 10  2  0
 10 11  1  0
 11 12  1  0
 13 12  1  1
 13 14  1  0
 13 15  2  0
 13 16  2  0
 11 17  2  0
  1 17  1  0
  1 18  1  0
  6 18  1  0
  2 18  2  0
  2 19  1  0
  3 20  1  0
 19 20  1  0
  4 21  1  0
  3 21  1  0
  4 22  1  0
  5 23  1  0
 22 23  1  0
  4 24  2  0
 20 25  2  0
 25 26  1  0
 19 27  1  0
  7 27  1  0
 26 27  2  0
  8 28  1  0
  1 28  2  0
  5 29  1  6
  5 30  1  0
  5 31  1  0
  6 32  1  0
  7 33  1  6
  7 34  1  0
  7 35  1  0
  8 36  1  0
  9 37  1  6
  9 38  1  0
  9 39  1  0
 12 40  1  0
 14 41  1  6
 14 42  1  0
 14 43  1  0
 17 44  1  0
 21 45  1  0
 23 46  1  1
 23 47  1  0
 28 48  1  0
M  END
