8D19_GSH_A_501
     RDKit          3D

 20 19  0  0  0  0  0  0  0  0999 V2000
   41.2214   20.0552   38.3072 N   0  0  0  0  0  0  0  0  0  0  0  0
   40.2142   19.4939   39.2503 C   0  0  2  0  0  0  0  0  0  0  0  0
   40.4411   17.9855   39.3919 C   0  0  0  0  0  0  0  0  0  0  0  0
   39.7358   17.2344   38.7075 O   0  0  0  0  0  0  0  0  0  0  0  0
   41.3418   17.6207   40.1624 O   0  0  0  0  0  0  0  0  0  0  0  0
   38.7943   19.7419   38.7333 C   0  0  0  0  0  0  0  0  0  0  0  0
   37.9732   20.6583   39.6299 C   0  0  0  0  0  0  0  0  0  0  0  0
   36.9091   19.9271   40.4242 C   0  0  0  0  0  0  0  0  0  0  0  0
   36.8172   18.7032   40.4196 O   0  0  0  0  0  0  0  0  0  0  0  0
   36.0579   20.6986   41.0997 N   0  0  0  0  0  0  0  0  0  0  0  0
   34.6154   20.5189   41.0734 C   0  0  2  0  0  0  0  0  0  0  0  0
   34.0343   20.3192   39.6723 C   0  0  0  0  0  0  0  0  0  0  0  0
   32.8157   20.3347   39.5208 O   0  0  0  0  0  0  0  0  0  0  0  0
   33.9092   21.6839   41.7456 C   0  0  0  0  0  0  0  0  0  0  0  0
   34.1333   21.7343   43.5422 S   0  0  0  0  0  0  0  0  0  0  0  0
   34.8973   20.1374   38.6699 N   0  0  0  0  0  0  0  0  0  0  0  0
   34.4840   19.5539   37.4096 C   0  0  0  0  0  0  0  0  0  0  0  0
   35.2594   20.0787   36.2016 C   0  0  0  0  0  0  0  0  0  0  0  0
   36.4673   20.3468   36.3477 O   0  0  0  0  0  0  0  0  0  0  0  0
   34.6216   20.1840   35.1327 O   0  0  0  0  0  0  0  0  0  0  0  0
  2  1  1  6
  2  3  1  0
  3  4  2  0
  3  5  1  0
  2  6  1  0
  6  7  1  0
  7  8  1  0
  8  9  2  0
  8 10  1  0
 10 11  1  0
 11 12  1  0
 12 13  2  0
 11 14  1  6
 14 15  1  0
 12 16  1  0
 16 17  1  0
 17 18  1  0
 18 19  2  0
 18 20  1  0
M  END
