6ZC3_JOR_B_401
     RDKit          3D

 15 15  0  0  0  0  0  0  0  0999 V2000
  -39.6485   34.6169   18.4303 C   0  0  0  0  0  0  0  0  0  0  0  0
  -39.2766   35.4388   19.9448 S   0  0  1  0  0  6  0  0  0  0  0  0
  -40.5656   36.0205   20.4829 O   0  0  0  0  0  0  0  0  0  0  0  0
  -38.7500   34.4229   20.9143 O   0  0  0  0  0  0  0  0  0  0  0  0
  -38.1208   36.7100   19.7544 N   0  0  0  0  0  0  0  0  0  0  0  0
  -37.5547   37.2766   20.9150 C   0  0  0  0  0  0  0  0  0  0  0  0
  -38.1434   37.0337   22.1486 C   0  0  0  0  0  0  0  0  0  0  0  0
  -37.6613   37.5456   23.3302 C   0  0  0  0  0  0  0  0  0  0  0  0
  -36.5499   38.3301   23.2843 C   0  0  0  0  0  0  0  0  0  0  0  0
  -36.0633   38.8395   24.4261 F   0  0  0  0  0  0  0  0  0  0  0  0
  -35.9632   38.5740   22.0680 C   0  0  0  0  0  0  0  0  0  0  0  0
  -36.4308   38.0694   20.8652 C   0  0  0  0  0  0  0  0  0  0  0  0
  -35.7180   38.4003   19.6479 C   0  0  0  0  0  0  0  0  0  0  0  0
  -34.5855   38.8959   19.5543 O   0  0  0  0  0  0  0  0  0  0  0  0
  -36.3632   38.1389   18.4214 O   0  0  0  0  0  0  0  0  0  0  0  0
  1  2  1  1
  2  3  2  0
  2  4  2  0
  2  5  1  6
  5  6  1  0
  6  7  2  0
  7  8  1  0
  8  9  2  0
  9 10  1  0
  9 11  1  0
 11 12  2  0
  6 12  1  0
 12 13  1  0
 13 14  2  0
 13 15  1  0
M  END
$$$$
