7OLT_58J_A_402
     RDKit          3D

 39 41  0  0  0  0  0  0  0  0999 V2000
   -8.8147  -13.1329    3.4247 C   0  0  0  0  0  0  0  0  0  0  0  0
   -7.5876  -11.3199    2.1975 C   0  0  0  0  0  0  0  0  0  0  0  0
   -7.4830  -10.9689    0.9004 C   0  0  0  0  0  0  0  0  0  0  0  0
   -7.0179  -11.6449   -1.4451 C   0  0  0  0  0  0  0  0  0  0  0  0
   -8.7352  -13.8403   -1.2434 C   0  0  0  0  0  0  0  0  0  0  0  0
   -7.4383  -10.3048    3.2495 C   0  0  0  0  0  0  0  0  0  0  0  0
  -11.8489  -10.6100    5.1208 C   0  0  0  0  0  0  0  0  0  0  0  0
   -7.2294  -15.1272   -4.2462 C   0  0  0  0  0  0  0  0  0  0  0  0
   -6.6366   -9.3443    3.0917 O   0  0  0  0  0  0  0  0  0  0  0  0
   -8.1858  -10.4019    4.4636 N   0  0  0  0  0  0  0  0  0  0  0  0
   -9.5220  -10.9260    4.4816 C   0  0  0  0  0  0  0  0  0  0  0  0
   -9.8427  -12.2020    3.9527 C   0  0  0  0  0  0  0  0  0  0  0  0
  -10.5325  -10.1509    5.0742 C   0  0  0  0  0  0  0  0  0  0  0  0
  -12.1709  -11.8567    4.5893 C   0  0  0  0  0  0  0  0  0  0  0  0
  -11.1757  -12.6512    4.0182 C   0  0  0  0  0  0  0  0  0  0  0  0
   -7.7167  -12.6928    2.6018 N   0  0  0  0  0  0  0  0  0  0  0  0
   -6.6612  -13.6487    2.2478 C   0  0  0  0  0  0  0  0  0  0  0  0
   -8.9374  -14.3637    3.6771 O   0  0  0  0  0  0  0  0  0  0  0  0
   -7.6757  -11.8990   -0.2334 C   0  0  0  0  0  0  0  0  0  0  0  0
   -8.5560  -12.9914   -0.1480 C   0  0  0  0  0  0  0  0  0  0  0  0
   -8.0580  -13.6044   -2.4450 C   0  0  0  0  0  0  0  0  0  0  0  0
   -8.2698  -14.4875   -3.5142 O   0  0  0  0  0  0  0  0  0  0  0  0
   -7.1977  -12.4943   -2.5410 C   0  0  0  0  0  0  0  0  0  0  0  0
   -7.2434   -9.9415    0.6503 H   0  0  0  0  0  0  0  0  0  0  0  0
   -6.3534  -10.7943   -1.5381 H   0  0  0  0  0  0  0  0  0  0  0  0
   -9.4109  -14.6822   -1.1611 H   0  0  0  0  0  0  0  0  0  0  0  0
  -12.6200   -9.9983    5.5713 H   0  0  0  0  0  0  0  0  0  0  0  0
   -6.6228  -15.7652   -3.5692 H   0  0  0  0  0  0  0  0  0  0  0  0
   -7.6798  -15.7693   -5.0304 H   0  0  0  0  0  0  0  0  0  0  0  0
   -6.5842  -14.3675   -4.7358 H   0  0  0  0  0  0  0  0  0  0  0  0
   -7.9071   -9.7600    5.2404 H   0  0  0  0  0  0  0  0  0  0  0  0
  -10.2982   -9.1789    5.4906 H   0  0  0  0  0  0  0  0  0  0  0  0
  -13.1920  -12.2136    4.6289 H   0  0  0  0  0  0  0  0  0  0  0  0
  -11.4481  -13.6236    3.6261 H   0  0  0  0  0  0  0  0  0  0  0  0
   -5.8375  -13.1530    1.6901 H   0  0  0  0  0  0  0  0  0  0  0  0
   -6.2317  -14.0926    3.1707 H   0  0  0  0  0  0  0  0  0  0  0  0
   -7.0823  -14.4576    1.6144 H   0  0  0  0  0  0  0  0  0  0  0  0
   -9.1176  -13.1798    0.7577 H   0  0  0  0  0  0  0  0  0  0  0  0
   -6.6654  -12.2779   -3.4571 H   0  0  0  0  0  0  0  0  0  0  0  0
  2  3  2  3
  2  6  1  0
  6  9  2  0
  6 10  1  0
 10 11  1  0
 11 12  4  0
  1 12  1  0
  7 13  4  0
 11 13  4  0
  7 14  4  0
 14 15  4  0
 12 15  4  0
  2 16  1  0
  1 16  1  0
 16 17  1  0
  1 18  2  0
  3 19  1  0
  4 19  4  0
 19 20  4  0
  5 20  4  0
  5 21  4  0
 21 22  1  0
  8 22  1  0
  4 23  4  0
 21 23  4  0
  3 24  1  0
  4 25  1  0
  5 26  1  0
  7 27  1  0
  8 28  1  0
  8 29  1  0
  8 30  1  0
 10 31  1  0
 13 32  1  0
 14 33  1  0
 15 34  1  0
 17 35  1  0
 17 36  1  0
 17 37  1  0
 20 38  1  0
 23 39  1  0
M  END
