7R9N_F97_B_301
     RDKit          3D

 31 35  0  0  0  0  0  0  0  0999 V2000
  -40.8181  -72.4423  264.9625 C   0  0  0  0  0  0  0  0  0  0  0  0
  -41.0210  -72.4883  263.5848 C   0  0  0  0  0  0  0  0  0  0  0  0
  -41.3156  -71.3251  262.9054 C   0  0  0  0  0  0  0  0  0  0  0  0
  -40.9226  -71.2102  265.6010 C   0  0  0  0  0  0  0  0  0  0  0  0
  -40.4378  -72.7871  267.0822 N   0  0  0  0  0  0  0  0  0  0  0  0
  -41.0598  -73.7656  261.2672 C   0  0  0  0  0  0  0  0  0  0  0  0
  -42.6649  -72.5673  256.5934 C   0  0  0  0  0  0  0  0  0  0  0  0
  -42.6606  -72.9609  255.1326 C   0  0  0  0  0  0  0  0  0  0  0  0
  -41.6061  -74.6724  256.3210 C   0  0  0  0  0  0  0  0  0  0  0  0
  -39.7149  -76.9799  260.0619 C   0  0  0  0  0  0  0  0  0  0  0  0
  -41.2118  -75.6438  266.5467 C   0  0  0  0  0  0  0  0  0  0  0  0
  -40.3320  -74.7782  265.6370 C   0  0  2  0  0  0  0  0  0  0  0  0
  -38.8942  -75.0979  266.0034 C   0  0  0  0  0  0  0  0  0  0  0  0
  -40.5216  -73.3800  265.8970 N   0  0  0  0  0  0  0  0  0  0  0  0
  -41.4071  -70.1542  263.5634 N   0  0  0  0  0  0  0  0  0  0  0  0
  -41.2182  -70.0698  264.8905 C   0  0  0  0  0  0  0  0  0  0  0  0
  -40.6807  -71.4537  266.9231 C   0  0  0  0  0  0  0  0  0  0  0  0
  -41.5257  -71.3552  261.4975 N   0  0  0  0  0  0  0  0  0  0  0  0
  -41.4366  -72.5514  260.7292 C   0  0  0  0  0  0  0  0  0  0  0  0
  -40.9859  -74.8956  260.4942 C   0  0  0  0  0  0  0  0  0  0  0  0
  -41.2840  -74.8355  259.1811 N   0  0  0  0  0  0  0  0  0  0  0  0
  -41.6507  -73.6576  258.6535 C   0  0  0  0  0  0  0  0  0  0  0  0
  -41.7259  -72.5441  259.4046 N   0  0  0  0  0  0  0  0  0  0  0  0
  -41.9576  -73.6328  257.2650 N   0  0  0  0  0  0  0  0  0  0  0  0
  -42.6144  -74.4720  255.2069 C   0  0  1  0  0  0  0  0  0  0  0  0
  -43.8139  -74.9990  255.5814 F   0  0  0  0  0  0  0  0  0  0  0  0
  -42.1238  -75.0215  254.0315 F   0  0  0  0  0  0  0  0  0  0  0  0
  -40.5865  -76.1971  261.0504 C   0  0  1  0  0  0  0  0  0  0  0  0
  -39.7775  -78.3560  260.7203 C   0  0  0  0  0  0  0  0  0  0  0  0
  -41.1301  -78.4856  261.2198 N   0  0  0  0  0  0  0  0  0  0  0  0
  -41.7338  -77.1728  261.2035 C   0  0  0  0  0  0  0  0  0  0  0  0
  1  2  2  0
  2  3  1  0
  1  4  1  0
  8  7  1  6
 11 12  1  6
 13 12  1  1
  1 14  1  0
  5 14  1  0
 12 14  1  1
  3 15  2  0
 15 16  1  0
  4 16  2  0
  4 17  1  0
  5 17  2  0
  3 18  1  0
 18 19  1  0
  6 19  2  0
  6 20  1  0
 20 21  2  0
 21 22  1  0
 19 23  1  0
 22 23  2  0
 22 24  1  0
  9 24  1  6
  7 24  1  6
  9 25  1  0
  8 25  1  0
 25 26  1  1
 25 27  1  0
 10 28  1  0
 28 20  1  6
 10 29  1  6
 29 30  1  1
 28 31  1  0
 31 30  1  1
M  END
$$$$
