
     RDKit          3D

 29 30  0  0  0  0  0  0  0  0999 V2000
   -9.6253    3.8545   17.3015 C   0  0  1  0  0  0  0  0  0  0  0  0
   -7.7464    3.1851   15.9333 C   0  0  0  0  0  0  0  0  0  0  0  0
  -10.5068    2.6121   17.4587 C   0  0  1  0  0  0  0  0  0  0  0  0
  -11.5306    3.0827   18.4632 C   0  0  2  0  0  0  0  0  0  0  0  0
   -7.5028    3.8888   13.7483 C   0  0  0  0  0  0  0  0  0  0  0  0
  -11.7286    4.5477   18.0657 C   0  0  2  0  0  0  0  0  0  0  0  0
   -8.7663    4.6500   13.7911 C   0  0  0  0  0  0  0  0  0  0  0  0
  -12.8174    4.7291   16.9991 C   0  0  0  0  0  0  0  0  0  0  0  0
   -9.4213    4.6269   14.9506 C   0  0  0  0  0  0  0  0  0  0  0  0
  -11.1571    2.3278   16.2945 F   0  0  0  0  0  0  0  0  0  0  0  0
   -8.9238    3.9341   16.0307 N   0  0  0  0  0  0  0  0  0  0  0  0
   -7.0451    3.2115   14.7534 N   0  0  0  0  0  0  0  0  0  0  0  0
   -6.7552    3.8821   12.6034 N   0  0  0  0  0  0  0  0  0  0  0  0
  -15.5314    4.7796   18.1612 O   0  0  0  0  0  0  0  0  0  0  0  0
  -16.7461    6.0666   15.8325 O   0  0  0  0  0  0  0  0  0  0  0  0
  -18.6812    3.0092   14.9201 O   0  0  0  0  0  0  0  0  0  0  0  0
   -7.3535    2.5183   16.8900 O   0  0  0  0  0  0  0  0  0  0  0  0
  -15.4478    2.1856   17.8726 O   0  0  0  0  0  0  0  0  0  0  0  0
  -14.6530    5.2870   14.5200 O   0  0  0  0  0  0  0  0  0  0  0  0
  -18.9265    3.7349   12.4537 O   0  0  0  0  0  0  0  0  0  0  0  0
  -11.0018    3.0073   19.7886 O   0  0  0  0  0  0  0  0  0  0  0  0
  -15.9149    3.6214   15.8908 O   0  0  0  0  0  0  0  0  0  0  0  0
  -16.8952    4.5271   13.7229 O   0  0  0  0  0  0  0  0  0  0  0  0
  -17.1932    2.0965   13.0612 O   0  0  0  0  0  0  0  0  0  0  0  0
  -10.4693    5.0178   17.5096 O   0  0  0  0  0  0  0  0  0  0  0  0
  -13.5959    3.5405   16.9001 O   0  0  0  0  0  0  0  0  0  0  0  0
  -15.1481    3.6379   17.2759 P   0  0  1  0  0  5  0  0  0  0  0  0
  -16.1330    4.9570   15.0459 P   0  0  0  0  0  5  0  0  0  0  0  0
  -17.9622    3.3599   13.6664 P   0  0  0  0  0  5  0  0  0  0  0  0
  1  3  1  0
  3  4  1  0
  4  6  1  0
  5  7  4  0
  6  8  1  6
  7  9  4  0
  3 10  1  6
  9 11  4  0
  2 11  4  0
  1 11  1  6
  5 12  4  0
  2 12  4  0
  5 13  1  0
  2 17  2  0
  4 21  1  1
  1 25  1  0
  6 25  1  0
  8 26  1  0
 14 27  2  0
 27 22  1  0
 26 27  1  0
 27 18  1  1
 28 23  1  0
 15 28  2  0
 28 19  1  0
 22 28  1  0
 16 29  2  0
 24 29  1  0
 23 29  1  0
 20 29  1  0
M  END
