6YJA_2BA_B_201
     RDKit          3D

 68 74  0  0  0  0  0  0  0  0999 V2000
    0.8888   -5.4841   -3.7517 P   0  0  2  0  0  5  0  0  0  0  0  0
   -0.3450   -6.2536   -3.3285 O   0  0  0  0  0  0  0  0  0  0  0  0
    1.2324   -5.8511   -5.3690 O   0  0  0  0  0  0  0  0  0  0  0  0
    2.2637   -5.8392   -2.8039 O   0  0  0  0  0  0  0  0  0  0  0  0
    2.0406   -6.9187   -1.9281 C   0  0  0  0  0  0  0  0  0  0  0  0
    2.9598   -6.7621   -0.7091 C   0  0  1  0  0  0  0  0  0  0  0  0
    2.8762   -7.9215    0.0908 O   0  0  0  0  0  0  0  0  0  0  0  0
    4.4293   -6.4952   -1.0928 C   0  0  1  0  0  0  0  0  0  0  0  0
    4.8616   -5.3083   -0.4445 O   0  0  0  0  0  0  0  0  0  0  0  0
    5.1510   -7.7022   -0.5327 C   0  0  1  0  0  0  0  0  0  0  0  0
    6.3803   -7.3644    0.0595 O   0  0  0  0  0  0  0  0  0  0  0  0
    4.1812   -8.2356    0.5068 C   0  0  2  0  0  0  0  0  0  0  0  0
    4.3240   -9.6852    0.6585 N   0  0  0  0  0  4  0  0  0  0  0  0
    5.0583  -10.5259   -0.1155 C   0  0  0  0  0  0  0  0  0  0  0  0
    4.9222  -11.8363    0.2303 N   0  0  0  0  0  0  0  0  0  0  0  0
    4.0552  -11.7836    1.2596 C   0  0  0  0  0  0  0  0  0  0  0  0
    3.5181  -12.8181    2.0193 C   0  0  0  0  0  0  0  0  0  0  0  0
    3.8742  -14.1822    1.7932 N   0  0  0  0  0  0  0  0  0  0  0  0
    2.6239  -12.4862    2.9991 N   0  0  0  0  0  0  0  0  0  0  0  0
    2.2633  -11.1814    3.2249 C   0  0  0  0  0  0  0  0  0  0  0  0
    2.7991  -10.1729    2.4724 N   0  0  0  0  0  0  0  0  0  0  0  0
    3.6919  -10.5051    1.5090 C   0  0  0  0  0  0  0  0  0  0  0  0
    5.4905   -4.1901   -1.5757 P   0  0  2  0  0  5  0  0  0  0  0  0
    6.5839   -4.8477   -2.3870 O   0  0  0  0  0  0  0  0  0  0  0  0
    6.1614   -2.8851   -0.7333 O   0  0  0  0  0  0  0  0  0  0  0  0
    4.2811   -3.6155   -2.6360 O   0  0  0  0  0  0  0  0  0  0  0  0
    3.2452   -3.0295   -1.8783 C   0  0  0  0  0  0  0  0  0  0  0  0
    2.2737   -2.2605   -2.7898 C   0  0  1  0  0  0  0  0  0  0  0  0
    2.9161   -1.1218   -3.3135 O   0  0  0  0  0  0  0  0  0  0  0  0
    1.7342   -3.0761   -3.9649 C   0  0  1  0  0  0  0  0  0  0  0  0
    0.5768   -3.8128   -3.6014 O   0  0  0  0  0  0  0  0  0  0  0  0
    1.3934   -1.9903   -4.9650 C   0  0  1  0  0  0  0  0  0  0  0  0
    0.0323   -1.6220   -4.9195 O   0  0  0  0  0  0  0  0  0  0  0  0
    2.2992   -0.8206   -4.5489 C   0  0  2  0  0  0  0  0  0  0  0  0
    3.3263   -0.5798   -5.5648 N   0  0  0  0  0  4  0  0  0  0  0  0
    4.5328   -1.1925   -5.6972 C   0  0  0  0  0  0  0  0  0  0  0  0
    5.2208   -0.7977   -6.8050 N   0  0  0  0  0  0  0  0  0  0  0  0
    4.3811    0.0877   -7.3750 C   0  0  0  0  0  0  0  0  0  0  0  0
    4.5230    0.8069   -8.5562 C   0  0  0  0  0  0  0  0  0  0  0  0
    5.7010    0.7163   -9.3583 N   0  0  0  0  0  0  0  0  0  0  0  0
    3.4883    1.6189   -8.9308 N   0  0  0  0  0  0  0  0  0  0  0  0
    2.3490    1.7241   -8.1713 C   0  0  0  0  0  0  0  0  0  0  0  0
    2.2203    1.0116   -7.0118 N   0  0  0  0  0  0  0  0  0  0  0  0
    3.2500    0.2106   -6.6426 C   0  0  0  0  0  0  0  0  0  0  0  0
    0.4754   -5.4689   -5.8799 H   0  0  0  0  0  0  0  0  0  0  0  0
    1.0042   -6.9638   -1.5296 H   0  0  0  0  0  0  0  0  0  0  0  0
    2.2693   -7.8709   -2.4532 H   0  0  0  0  0  0  0  0  0  0  0  0
    2.5700   -5.9091   -0.1087 H   0  0  0  0  0  0  0  0  0  0  0  0
    4.5733   -6.4960   -2.2008 H   0  0  0  0  0  0  0  0  0  0  0  0
    5.2940   -8.4614   -1.3399 H   0  0  0  0  0  0  0  0  0  0  0  0
    7.0444   -7.3244   -0.6762 H   0  0  0  0  0  0  0  0  0  0  0  0
    4.3619   -7.7408    1.4891 H   0  0  0  0  0  0  0  0  0  0  0  0
    5.6821  -10.1930   -0.9351 H   0  0  0  0  0  0  0  0  0  0  0  0
    4.5488  -14.4447    1.0378 H   0  0  0  0  0  0  0  0  0  0  0  0
    3.4540  -14.9396    2.3793 H   0  0  0  0  0  0  0  0  0  0  0  0
    1.5489  -10.9491    4.0027 H   0  0  0  0  0  0  0  0  0  0  0  0
    6.7819   -3.3030   -0.0800 H   0  0  0  0  0  0  0  0  0  0  0  0
    2.6781   -3.8097   -1.3309 H   0  0  0  0  0  0  0  0  0  0  0  0
    3.6455   -2.3030   -1.1345 H   0  0  0  0  0  0  0  0  0  0  0  0
    1.4227   -1.9145   -2.1585 H   0  0  0  0  0  0  0  0  0  0  0  0
    2.5588   -3.6796   -4.4166 H   0  0  0  0  0  0  0  0  0  0  0  0
    1.6210   -2.3424   -5.9963 H   0  0  0  0  0  0  0  0  0  0  0  0
   -0.1786   -1.3270   -3.9935 H   0  0  0  0  0  0  0  0  0  0  0  0
    1.7000    0.1080   -4.4171 H   0  0  0  0  0  0  0  0  0  0  0  0
    4.9119   -1.9279   -4.9982 H   0  0  0  0  0  0  0  0  0  0  0  0
    6.5252    0.1535   -9.0464 H   0  0  0  0  0  0  0  0  0  0  0  0
    5.7635    1.2414  -10.2596 H   0  0  0  0  0  0  0  0  0  0  0  0
    1.5477    2.3755   -8.4931 H   0  0  0  0  0  0  0  0  0  0  0  0
  1  2  2  0
  1  3  1  6
  1  4  1  0
  4  5  1  0
  6  5  1  0
  6  7  1  0
  6  8  1  0
  8  9  1  0
  8 10  1  0
 10 11  1  0
  7 12  1  0
 10 12  1  0
 12 13  1  0
 13 14  4  0
 14 15  4  0
 15 16  4  0
 16 17  4  0
 17 18  1  0
 17 19  4  0
 19 20  4  0
 20 21  4  0
 13 22  4  0
 16 22  4  0
 21 22  4  0
  9 23  1  0
 23 24  2  0
 23 25  1  1
 23 26  1  0
 26 27  1  0
 28 27  1  0
 28 29  1  0
 28 30  1  0
  1 31  1  0
 30 31  1  0
 30 32  1  0
 32 33  1  0
 29 34  1  0
 32 34  1  0
 34 35  1  0
 35 36  4  0
 36 37  4  0
 37 38  4  0
 38 39  4  0
 39 40  1  0
 39 41  4  0
 41 42  4  0
 42 43  4  0
 35 44  4  0
 38 44  4  0
 43 44  4  0
  3 45  1  0
  5 46  1  0
  5 47  1  0
  6 48  1  1
  8 49  1  6
 10 50  1  6
 11 51  1  0
 12 52  1  1
 14 53  1  0
 18 54  1  0
 18 55  1  0
 20 56  1  0
 25 57  1  0
 27 58  1  0
 27 59  1  0
 28 60  1  1
 30 61  1  6
 32 62  1  6
 33 63  1  0
 34 64  1  1
 36 65  1  0
 40 66  1  0
 40 67  1  0
 42 68  1  0
M  CHG  2  13   1  35   1
M  END
