8ERS_WQO_A_201
     RDKit          3D

 38 40  0  0  0  0  0  0  0  0999 V2000
   -3.2224   -4.8632   -2.7455 C   0  0  0  0  0  0  0  0  0  0  0  0
   -3.3771   -2.6749   -3.7510 C   0  0  0  0  0  0  0  0  0  0  0  0
   -2.8955   -3.9882   -3.7923 C   0  0  0  0  0  0  0  0  0  0  0  0
   -4.1718   -2.2494   -2.7139 C   0  0  0  0  0  0  0  0  0  0  0  0
   -4.6121   -0.8463   -2.8808 C   0  0  0  0  0  0  0  0  0  0  0  0
   -4.7298    0.3540   -5.1024 C   0  0  0  0  0  0  0  0  0  0  0  0
   -3.8353   -0.3620   -4.1273 C   0  0  2  0  0  0  0  0  0  0  0  0
   -4.5153   -3.1072   -1.6657 C   0  0  0  0  0  0  0  0  0  0  0  0
   -4.0304   -4.4230   -1.6829 C   0  0  0  0  0  0  0  0  0  0  0  0
   -0.9003   -3.4018   -0.2754 C   0  0  0  0  0  0  0  0  0  0  0  0
   -1.9675   -2.5402   -0.5574 C   0  0  0  0  0  0  0  0  0  0  0  0
   -2.0077   -1.8187   -1.7571 C   0  0  0  0  0  0  0  0  0  0  0  0
   -0.9362   -1.9276   -2.6775 C   0  0  0  0  0  0  0  0  0  0  0  0
   -0.8720   -1.1167   -3.9106 C   0  0  0  0  0  0  0  0  0  0  0  0
   -3.1642   -1.6071   -4.7650 C   0  0  1  0  0  0  0  0  0  0  0  0
    0.1201   -2.8113   -2.3934 C   0  0  0  0  0  0  0  0  0  0  0  0
    0.1377   -3.5411   -1.2030 C   0  0  0  0  0  0  0  0  0  0  0  0
   -0.8766   -4.1422    0.9479 N   0  0  0  0  0  0  0  0  0  0  0  0
   -3.1385   -1.0389   -2.0109 O   0  0  0  0  0  0  0  0  0  0  0  0
   -1.7698   -1.3631   -4.9557 O   0  0  0  0  0  0  0  0  0  0  0  0
   -5.9174   -0.2363   -5.5270 O   0  0  0  0  0  0  0  0  0  0  0  0
   -4.4030    1.4892   -5.5407 O   0  0  0  0  0  0  0  0  0  0  0  0
   -0.0465   -0.1656   -3.9911 O   0  0  0  0  0  0  0  0  0  0  0  0
   -2.8555   -5.8811   -2.7585 H   0  0  0  0  0  0  0  0  0  0  0  0
   -2.2826   -4.3318   -4.6137 H   0  0  0  0  0  0  0  0  0  0  0  0
   -4.3417   -0.2469   -1.9847 H   0  0  0  0  0  0  0  0  0  0  0  0
   -5.7142   -0.8238   -3.0283 H   0  0  0  0  0  0  0  0  0  0  0  0
   -3.0434    0.3425   -3.7825 H   0  0  0  0  0  0  0  0  0  0  0  0
   -5.1463   -2.7651   -0.8556 H   0  0  0  0  0  0  0  0  0  0  0  0
   -4.2837   -5.1023   -0.8794 H   0  0  0  0  0  0  0  0  0  0  0  0
   -2.7843   -2.4454    0.1478 H   0  0  0  0  0  0  0  0  0  0  0  0
   -3.6572   -1.8941   -5.7212 H   0  0  0  0  0  0  0  0  0  0  0  0
    0.9491   -2.9177   -3.0827 H   0  0  0  0  0  0  0  0  0  0  0  0
    0.9665   -4.2074   -0.9991 H   0  0  0  0  0  0  0  0  0  0  0  0
   -0.0866   -4.7900    1.1656 H   0  0  0  0  0  0  0  0  0  0  0  0
   -1.6482   -4.0475    1.6456 H   0  0  0  0  0  0  0  0  0  0  0  0
   -3.3360   -0.6220   -2.9104 H   0  0  0  0  0  0  0  0  0  0  0  0
   -6.5262    0.2358   -6.1848 H   0  0  0  0  0  0  0  0  0  0  0  0
  1  3  4  0
  2  3  4  0
  2  4  4  0
  4  5  1  0
  5  7  1  0
  7  6  1  0
  4  8  4  0
  1  9  4  0
  8  9  4  0
 10 11  4  0
 11 12  4  0
 12 13  4  0
 13 14  1  0
  2 15  1  0
  7 15  1  0
 13 16  4  0
 16 17  4  0
 10 17  4  0
 10 18  1  0
 12 19  1  0
 15 20  1  0
 14 20  1  0
  6 21  1  0
  6 22  2  0
 14 23  2  0
  1 24  1  0
  3 25  1  0
  5 26  1  0
  5 27  1  0
  7 28  1  1
  8 29  1  0
  9 30  1  0
 11 31  1  0
 15 32  1  6
 16 33  1  0
 17 34  1  0
 18 35  1  0
 18 36  1  0
 19 37  1  0
 21 38  1  0
M  END
