1S19_MC9_A_500
     RDKit          3D

 70 73  0  0  0  0  0  0  0  0999 V2000
   17.0074   15.7266   36.5334 O   0  0  0  0  0  0  0  0  0  0  0  0
   16.9174   19.9079   37.8353 O   0  0  0  0  0  0  0  0  0  0  0  0
   17.6049   19.4764   36.6869 C   0  0  1  0  0  0  0  0  0  0  0  0
   17.9108   17.9650   36.7575 C   0  0  1  0  0  0  0  0  0  0  0  0
   16.6740   17.0901   36.4605 C   0  0  1  0  0  0  0  0  0  0  0  0
   16.0687   17.4243   35.0844 C   0  0  2  0  0  0  0  0  0  0  0  0
   15.7574   18.8977   34.9884 C   0  0  0  0  0  0  0  0  0  0  0  0
   14.5578   19.3011   34.5223 C   0  0  0  0  0  0  0  0  0  0  0  0
   14.0830   20.7004   34.6007 C   0  0  0  0  0  0  0  0  0  0  0  0
   12.9437   21.1510   34.0367 C   0  0  0  0  0  0  0  0  0  0  0  0
   12.1265   20.3464   33.0355 C   0  0  1  0  0  0  0  0  0  0  0  0
   16.8302   19.8289   35.4321 C   0  0  0  0  0  0  0  0  0  0  0  0
   10.6078   20.5947   33.1731 C   0  0  2  0  0  0  0  0  0  0  0  0
   10.2286   22.0856   33.3382 C   0  0  1  0  0  0  0  0  0  0  0  0
   11.0452   22.7583   34.4704 C   0  0  1  0  0  0  0  0  0  0  0  0
   12.5356   22.6054   34.1241 C   0  0  1  0  0  0  0  0  0  0  0  0
   13.2491   23.5730   35.0689 C   0  0  1  0  0  0  0  0  0  0  0  0
   12.2724   24.7536   35.2109 C   0  0  2  0  0  0  0  0  0  0  0  0
   10.9542   24.3160   34.5273 C   0  0  2  0  0  0  0  0  0  0  0  0
   10.7142   22.0815   35.8364 C   0  0  2  0  0  0  0  0  0  0  0  0
   17.1567   20.9154   34.7209 C   0  0  0  0  0  0  0  0  0  0  0  0
    9.6841   25.0644   35.0602 C   0  0  1  0  0  0  0  0  0  0  0  0
    9.1343   26.0301   34.0290 C   0  0  0  0  0  0  0  0  0  0  0  0
    8.7246   28.3419   33.1439 C   0  0  2  0  0  0  0  0  0  0  0  0
    8.5647   24.1850   35.6484 C   0  0  2  0  0  0  0  0  0  0  0  0
    9.0775   29.8307   33.4072 C   0  0  1  0  0  0  0  0  0  0  0  0
    8.6522   30.3739   34.7665 C   0  0  1  0  0  0  0  0  0  0  0  0
   10.1286   30.2078   34.4496 C   0  0  1  0  0  0  0  0  0  0  0  0
    7.3396   28.1837   32.9672 O   0  0  0  0  0  0  0  0  0  0  0  0
    9.2382   27.3628   34.1760 C   0  0  0  0  0  0  0  0  0  0  0  0
   17.9981   15.6582   36.5496 H   0  0  0  0  0  0  0  0  0  0  0  0
   16.0086   20.1988   37.5614 H   0  0  0  0  0  0  0  0  0  0  0  0
   18.5872   19.9989   36.6783 H   0  0  0  0  0  0  0  0  0  0  0  0
   18.7091   17.7298   36.0191 H   0  0  0  0  0  0  0  0  0  0  0  0
   18.3064   17.7160   37.7662 H   0  0  0  0  0  0  0  0  0  0  0  0
   15.9039   17.2829   37.2381 H   0  0  0  0  0  0  0  0  0  0  0  0
   15.1575   16.8029   34.9385 H   0  0  0  0  0  0  0  0  0  0  0  0
   16.7890   17.1637   34.2787 H   0  0  0  0  0  0  0  0  0  0  0  0
   13.8628   18.5457   34.1827 H   0  0  0  0  0  0  0  0  0  0  0  0
   14.6931   21.3859   35.1719 H   0  0  0  0  0  0  0  0  0  0  0  0
   12.4443   20.6487   32.0145 H   0  0  0  0  0  0  0  0  0  0  0  0
   12.2944   19.2562   33.1143 H   0  0  0  0  0  0  0  0  0  0  0  0
   10.2209   20.0146   34.0378 H   0  0  0  0  0  0  0  0  0  0  0  0
   10.0965   20.1946   32.2711 H   0  0  0  0  0  0  0  0  0  0  0  0
   10.4009   22.6100   32.3725 H   0  0  0  0  0  0  0  0  0  0  0  0
    9.1438   22.1413   33.5672 H   0  0  0  0  0  0  0  0  0  0  0  0
   12.7122   23.0109   33.0977 H   0  0  0  0  0  0  0  0  0  0  0  0
   13.4182   23.1062   36.0638 H   0  0  0  0  0  0  0  0  0  0  0  0
   14.2228   23.9025   34.6453 H   0  0  0  0  0  0  0  0  0  0  0  0
   12.6824   25.6590   34.7116 H   0  0  0  0  0  0  0  0  0  0  0  0
   12.1291   24.9892   36.2853 H   0  0  0  0  0  0  0  0  0  0  0  0
   11.0557   24.6697   33.4724 H   0  0  0  0  0  0  0  0  0  0  0  0
    9.6688   21.7169   35.8527 H   0  0  0  0  0  0  0  0  0  0  0  0
   10.8839   22.7631   36.6926 H   0  0  0  0  0  0  0  0  0  0  0  0
   11.3492   21.1923   36.0232 H   0  0  0  0  0  0  0  0  0  0  0  0
   16.6562   21.1475   33.7895 H   0  0  0  0  0  0  0  0  0  0  0  0
   17.9473   21.5790   35.0476 H   0  0  0  0  0  0  0  0  0  0  0  0
   10.0476   25.6966   35.9020 H   0  0  0  0  0  0  0  0  0  0  0  0
    8.7092   25.6406   33.1131 H   0  0  0  0  0  0  0  0  0  0  0  0
    9.2337   28.0692   32.1910 H   0  0  0  0  0  0  0  0  0  0  0  0
    8.9183   23.1639   35.8858 H   0  0  0  0  0  0  0  0  0  0  0  0
    7.6858   24.1399   34.9771 H   0  0  0  0  0  0  0  0  0  0  0  0
    8.2113   24.6220   36.6060 H   0  0  0  0  0  0  0  0  0  0  0  0
    8.9176   30.5621   32.5860 H   0  0  0  0  0  0  0  0  0  0  0  0
    8.3117   31.4309   34.7594 H   0  0  0  0  0  0  0  0  0  0  0  0
    8.2687   29.6406   35.5047 H   0  0  0  0  0  0  0  0  0  0  0  0
   10.6120   29.4020   35.0369 H   0  0  0  0  0  0  0  0  0  0  0  0
   10.6458   31.1710   34.2558 H   0  0  0  0  0  0  0  0  0  0  0  0
    7.0790   28.7647   32.2053 H   0  0  0  0  0  0  0  0  0  0  0  0
    9.7251   27.7694   35.0580 H   0  0  0  0  0  0  0  0  0  0  0  0
  3  2  1  0
  3  4  1  0
  5  1  1  0
  4  5  1  0
  5  6  1  0
  6  7  1  0
  7  8  2  0
  8  9  1  0
  9 10  2  0
 10 11  1  0
  3 12  1  0
  7 12  1  0
 11 13  1  0
 13 14  1  0
 14 15  1  0
 10 16  1  0
 15 16  1  6
 16 17  1  0
 17 18  1  0
 15 19  1  0
 19 18  1  0
 15 20  1  0
 12 21  2  0
 19 22  1  0
 22 23  1  0
 22 25  1  0
 24 26  1  0
 26 27  1  0
 26 28  1  0
 27 28  1  0
 24 29  1  0
 23 30  2  0
 24 30  1  0
  1 31  1  0
  2 32  1  0
  3 33  1  6
  4 34  1  6
  4 35  1  0
  5 36  1  1
  6 37  1  6
  6 38  1  0
  8 39  1  0
  9 40  1  0
 11 41  1  6
 11 42  1  0
 13 43  1  1
 13 44  1  0
 14 45  1  6
 14 46  1  0
 16 47  1  6
 17 48  1  1
 17 49  1  0
 18 50  1  6
 18 51  1  0
 19 52  1  6
 20 53  1  6
 20 54  1  0
 20 55  1  0
 21 56  1  0
 21 57  1  0
 22 58  1  1
 23 59  1  0
 24 60  1  6
 25 61  1  1
 25 62  1  0
 25 63  1  0
 26 64  1  6
 27 65  1  6
 27 66  1  0
 28 67  1  1
 28 68  1  0
 29 69  1  0
 30 70  1  0
M  END
