
     RDKit          3D

 53 58  0  0  0  0  0  0  0  0999 V2000
   24.3736   23.2457   94.4786 P   0  0  1  0  0  5  0  0  0  0  0  0
   25.7601   22.6872   94.4718 O   0  0  0  0  0  0  0  0  0  0  0  0
   24.0238   24.0419   93.1407 O   0  0  0  0  0  0  0  0  0  0  0  0
   23.2000   22.1646   94.6100 O   0  0  0  0  0  0  0  0  0  0  0  0
   21.8710   22.6193   94.8330 C   0  0  0  0  0  0  0  0  0  0  0  0
   21.4215   22.0724   96.1845 C   0  0  1  0  0  0  0  0  0  0  0  0
   22.0875   20.8131   96.4651 O   0  0  0  0  0  0  0  0  0  0  0  0
   21.7560   22.9888   97.3536 C   0  0  1  0  0  0  0  0  0  0  0  0
   20.8345   24.0555   97.5074 O   0  0  0  0  0  0  0  0  0  0  0  0
   21.6821   22.0092   98.5116 C   0  0  1  0  0  0  0  0  0  0  0  0
   20.3069   21.7730   98.8485 O   0  0  0  0  0  0  0  0  0  0  0  0
   22.3157   20.7537   97.8972 C   0  0  2  0  0  0  0  0  0  0  0  0
   23.7449   20.6702   98.1411 N   0  0  0  0  0  0  0  0  0  0  0  0
   24.7660   21.0585   97.3193 C   0  0  0  0  0  0  0  0  0  0  0  0
   25.9421   20.9251   97.8957 N   0  0  0  0  0  0  0  0  0  0  0  0
   25.6665   20.3881   99.1363 C   0  0  0  0  0  0  0  0  0  0  0  0
   26.4860   19.9974  100.2066 C   0  0  0  0  0  0  0  0  0  0  0  0
   27.8704   20.1185  100.1870 N   0  0  0  0  0  0  0  0  0  0  0  0
   25.9022   19.4610  101.3061 N   0  0  0  0  0  0  0  0  0  0  0  0
   24.5548   19.3584  101.3332 C   0  0  0  0  0  0  0  0  0  0  0  0
   23.6693   19.7197  100.3819 N   0  0  0  0  0  0  0  0  0  0  0  0
   24.3036   20.2160   99.3049 C   0  0  0  0  0  0  0  0  0  0  0  0
   24.2753   24.3714  102.3137 N   0  0  0  0  0  0  0  0  0  0  0  0
   23.1379   25.0283  102.6881 C   0  0  0  0  0  0  0  0  0  0  0  0
   22.1270   25.0013  101.9847 O   0  0  0  0  0  0  0  0  0  0  0  0
   23.1049   25.7384  103.8527 N   0  0  0  0  0  0  0  0  0  0  0  0
   24.1979   26.1168  104.5692 C   0  0  0  0  0  0  0  0  0  0  0  0
   24.1861   26.9653  105.4477 O   0  0  0  0  0  0  0  0  0  0  0  0
   25.4471   25.3791  104.1776 C   0  0  0  0  0  0  0  0  0  0  0  0
   26.5258   25.5189  104.8873 N   0  0  0  0  0  0  0  0  0  0  0  0
   27.6751   24.7976  104.5181 C   0  0  0  0  0  0  0  0  0  0  0  0
   28.8099   24.9639  105.3224 C   0  0  0  0  0  0  0  0  0  0  0  0
   30.0083   24.2873  105.0590 C   0  0  0  0  0  0  0  0  0  0  0  0
   31.2012   24.5191  105.9449 C   0  0  0  0  0  0  0  0  0  0  0  0
   30.0613   23.4120  103.9627 C   0  0  0  0  0  0  0  0  0  0  0  0
   31.3153   22.6424  103.6384 C   0  0  0  0  0  0  0  0  0  0  0  0
   28.9157   23.2418  103.1577 C   0  0  0  0  0  0  0  0  0  0  0  0
   27.7152   23.9379  103.3986 C   0  0  0  0  0  0  0  0  0  0  0  0
   26.5611   23.8107  102.5913 N   0  0  0  0  0  0  0  0  0  0  0  0
   25.3948   24.4807  102.9636 C   0  0  0  0  0  0  0  0  0  0  0  0
   26.6292   23.0902  101.3097 C   0  0  0  0  0  0  0  0  0  0  0  0
   27.0174   24.0061  100.1146 C   0  0  1  0  0  0  0  0  0  0  0  0
   28.2791   23.5858   99.5687 O   0  0  0  0  0  0  0  0  0  0  0  0
   25.9486   24.0084   98.9916 C   0  0  1  0  0  0  0  0  0  0  0  0
   24.7481   23.3736   99.4613 O   0  0  0  0  0  0  0  0  0  0  0  0
   25.6757   25.4415   98.4423 C   0  0  1  0  0  0  0  0  0  0  0  0
   26.4654   25.7154   97.2874 O   0  0  0  0  0  0  0  0  0  0  0  0
   24.2003   25.6582   98.0826 C   0  0  0  0  0  0  0  0  0  0  0  0
   24.1282   26.4105   96.8822 O   0  0  0  0  0  0  0  0  0  0  0  0
   23.5244   25.7516   95.5456 P   0  0  1  0  0  5  0  0  0  0  0  0
   22.0420   25.8874   95.4062 O   0  0  0  0  0  0  0  0  0  0  0  0
   24.3282   26.4122   94.3333 O   0  0  0  0  0  0  0  0  0  0  0  0
   24.0490   24.2586   95.6496 O   0  0  0  0  0  0  0  0  0  0  0  0
  1  2  2  0
  1  3  1  6
  1  4  1  0
  4  5  1  0
  6  5  1  6
  6  7  1  0
  6  8  1  0
  8  9  1  1
  8 10  1  0
 10 11  1  6
  7 12  1  0
 10 12  1  0
 12 13  1  6
 13 14  4  0
 14 15  4  0
 15 16  4  0
 16 17  4  0
 17 18  1  0
 17 19  4  0
 19 20  4  0
 20 21  4  0
 13 22  4  0
 16 22  4  0
 21 22  4  0
 23 24  4  0
 24 25  2  0
 24 26  4  0
 26 27  4  0
 27 28  2  0
 27 29  4  0
 29 30  4  0
 30 31  4  0
 31 32  4  0
 32 33  4  0
 33 34  1  0
 33 35  4  0
 35 36  1  0
 35 37  4  0
 31 38  4  0
 37 38  4  0
 38 39  4  0
 23 40  4  0
 29 40  1  0
 39 40  4  0
 39 41  1  0
 41 42  1  0
 42 43  1  6
 42 44  1  0
 44 45  1  1
 44 46  1  0
 46 47  1  6
 46 48  1  0
 48 49  1  0
 50 49  1  0
 50 51  2  0
 50 52  1  6
  1 53  1  0
 50 53  1  0
M  END
