7Q19_DSM_AAA_201
     RDKit          3D

 20 22  0  0  0  0  0  0  0  0999 V2000
    1.0744   48.9573   16.2414 C   0  0  0  0  0  0  0  0  0  0  0  0
   -0.2900   49.1837   16.6061 N   0  0  0  0  0  0  0  0  0  0  0  0
   -1.2170   48.7117   15.6406 C   0  0  0  0  0  0  0  0  0  0  0  0
   -2.6904   48.9099   16.0575 C   0  0  0  0  0  0  0  0  0  0  0  0
   -3.4676   48.3372   14.8897 C   0  0  0  0  0  0  0  0  0  0  0  0
   -4.8692   48.4864   14.8900 N   0  0  0  0  0  0  0  0  0  0  0  0
   -5.4636   49.7197   14.3808 C   0  0  0  0  0  0  0  0  0  0  0  0
   -4.5133   50.7128   14.3673 C   0  0  0  0  0  0  0  0  0  0  0  0
   -4.8301   51.9706   13.9194 C   0  0  0  0  0  0  0  0  0  0  0  0
   -6.1277   52.2037   13.4862 C   0  0  0  0  0  0  0  0  0  0  0  0
   -7.0943   51.1947   13.5002 C   0  0  0  0  0  0  0  0  0  0  0  0
   -6.7778   49.9145   13.9543 C   0  0  0  0  0  0  0  0  0  0  0  0
   -7.9446   49.0022   13.8975 C   0  0  0  0  0  0  0  0  0  0  0  0
   -7.6433   47.5550   13.7680 C   0  0  0  0  0  0  0  0  0  0  0  0
   -6.8939   47.0022   14.9367 C   0  0  0  0  0  0  0  0  0  0  0  0
   -5.6841   47.4329   15.4179 C   0  0  0  0  0  0  0  0  0  0  0  0
   -7.5218   45.9606   15.5800 C   0  0  0  0  0  0  0  0  0  0  0  0
   -6.8981   45.4051   16.6795 C   0  0  0  0  0  0  0  0  0  0  0  0
   -5.6710   45.8536   17.1560 C   0  0  0  0  0  0  0  0  0  0  0  0
   -5.0508   46.8737   16.5307 C   0  0  0  0  0  0  0  0  0  0  0  0
  1  2  1  1
  3  2  1  1
  4  3  1  1
  4  5  1  0
  5  6  1  1
  6  7  1  0
  7  8  2  0
  8  9  1  0
  9 10  2  0
 10 11  1  0
  7 12  1  0
 11 12  2  0
 13 12  1  1
 13 14  1  0
 14 15  1  1
  6 16  1  0
 15 16  2  0
 15 17  1  0
 17 18  2  0
 18 19  1  0
 16 20  1  0
 19 20  2  0
M  END
$$$$
