7WL4_JFU_A_201
     RDKit          3D

 34 38  0  0  0  0  0  0  0  0999 V2000
    4.0939   12.5755   29.3292 F   0  0  0  0  0  0  0  0  0  0  0  0
    4.7389   11.4406   29.0563 C   0  0  0  0  0  0  0  0  0  0  0  0
    4.0022   10.4370   28.4190 C   0  0  0  0  0  0  0  0  0  0  0  0
    4.5846    9.2257   28.1152 C   0  0  0  0  0  0  0  0  0  0  0  0
    3.8519    8.2774   27.5015 F   0  0  0  0  0  0  0  0  0  0  0  0
    5.8995    9.0538   28.4618 C   0  0  0  0  0  0  0  0  0  0  0  0
    6.6194   10.0442   29.0882 C   0  0  0  0  0  0  0  0  0  0  0  0
    6.0506   11.2878   29.4089 C   0  0  0  0  0  0  0  0  0  0  0  0
    7.0520   12.4675   30.1758 S   0  0  2  0  0  6  0  0  0  0  0  0
    6.9654   13.7652   29.4002 O   0  0  0  0  0  0  0  0  0  0  0  0
    8.5122   12.0157   30.1061 O   0  0  0  0  0  0  0  0  0  0  0  0
    6.5998   12.7450   31.7901 N   0  0  0  0  0  0  0  0  0  0  0  0
    6.5060   11.8303   32.8402 C   0  0  0  0  0  0  0  0  0  0  0  0
    7.5585   11.2085   33.4718 C   0  0  0  0  0  0  0  0  0  0  0  0
    7.4197   10.3392   34.5297 C   0  0  0  0  0  0  0  0  0  0  0  0
    6.1533   10.0571   35.0055 C   0  0  0  0  0  0  0  0  0  0  0  0
    5.5980    9.2500   36.0341 N   0  0  0  0  0  0  0  0  0  0  0  0
    6.3571    8.4192   36.9477 C   0  0  0  0  0  0  0  0  0  0  0  0
    6.7855    7.1378   36.2512 C   0  0  0  0  0  0  0  0  0  0  0  0
    4.1663    9.4153   35.9914 C   0  0  0  0  0  0  0  0  0  0  0  0
    3.3181    8.8841   36.7208 O   0  0  0  0  0  0  0  0  0  0  0  0
    3.8985   10.3441   34.9063 C   0  0  0  0  0  0  0  0  0  0  0  0
    2.7696   10.9189   34.3397 C   0  0  0  0  0  0  0  0  0  0  0  0
    5.1033   10.6782   34.3746 C   0  0  0  0  0  0  0  0  0  0  0  0
    5.2245   11.5434   33.3235 C   0  0  0  0  0  0  0  0  0  0  0  0
    4.1179   12.0741   32.8076 N   0  0  0  0  0  0  0  0  0  0  0  0
    2.8802   11.8061   33.2637 C   0  0  0  0  0  0  0  0  0  0  0  0
    1.7406   12.4089   32.6686 N   0  0  0  0  0  0  0  0  0  0  0  0
    1.7781   13.5960   31.8625 C   0  0  0  0  0  0  0  0  0  0  0  0
    0.7561   13.3961   30.7500 C   0  0  0  0  0  0  0  0  0  0  0  0
   -0.5458   13.3867   31.3123 N   0  0  0  0  0  0  0  0  0  0  0  0
   -1.2086   14.6510   31.2579 C   0  0  0  0  0  0  0  0  0  0  0  0
   -0.7104   12.6434   32.5066 C   0  0  0  0  0  0  0  0  0  0  0  0
    0.4549   11.7848   32.8927 C   0  0  0  0  0  0  0  0  0  0  0  0
  1  2  1  0
  2  3  2  0
  3  4  1  0
  4  5  1  0
  4  6  2  0
  6  7  1  0
  2  8  1  0
  7  8  2  0
  8  9  1  0
  9 10  2  0
  9 11  2  0
  9 12  1  1
 12 13  1  0
 13 14  2  0
 14 15  1  0
 15 16  2  0
 16 17  1  0
 18 17  1  6
 19 18  1  1
 17 20  1  0
 20 21  2  0
 20 22  1  0
 22 23  2  0
 16 24  1  0
 22 24  1  0
 13 25  1  0
 24 25  2  0
 25 26  1  0
 26 27  2  0
 23 27  1  0
 27 28  1  0
 29 28  1  6
 29 30  1  0
 30 31  1  6
 32 31  1  1
 33 31  1  6
 33 34  1  0
 34 28  1  6
M  END
$$$$
