1IG3_VIB_B_501
     RDKit          3D

 18 19  0  0  0  0  0  0  0  0999 V2000
   21.3003   57.3055   13.7707 C   0  0  0  0  0  0  0  0  0  0  0  0
   22.2704   55.0103    9.5187 N   0  0  0  0  0  0  0  0  0  0  0  0
   19.5922   56.0829    5.2230 C   0  0  0  0  0  0  0  0  0  0  0  0
   19.9675   59.5129    1.8867 O   0  0  0  0  0  0  0  0  0  0  0  0
   20.2471   59.4340    3.2707 C   0  0  0  0  0  0  0  0  0  0  0  0
   21.1029   58.1699    3.5382 C   0  0  0  0  0  0  0  0  0  0  0  0
   21.5941   58.1951    7.3749 C   0  0  0  0  0  0  0  0  0  0  0  0
   22.2143   59.1406    6.0257 S   0  0  0  0  0  0  0  0  0  0  0  0
   21.1918   58.0438    5.0305 C   0  0  0  0  0  0  0  0  0  0  0  0
   20.5330   57.1341    5.7980 C   0  0  0  0  0  0  0  0  0  0  0  0
   20.7894   57.2677    7.0540 N   0  0  0  0  0  0  0  0  0  0  0  0
   20.2014   56.4176    8.1017 C   0  0  0  0  0  0  0  0  0  0  0  0
   21.4982   55.9381   10.2285 C   0  0  0  0  0  0  0  0  0  0  0  0
   21.7581   56.1571   11.5869 N   0  0  0  0  0  0  0  0  0  0  0  0
   21.0031   57.0853   12.3173 C   0  0  0  0  0  0  0  0  0  0  0  0
   19.9752   57.8102   11.6758 N   0  0  0  0  0  0  0  0  0  0  0  0
   19.7080   57.5951   10.3077 C   0  0  0  0  0  0  0  0  0  0  0  0
   20.4766   56.6563    9.5724 C   0  0  0  0  0  0  0  0  0  0  0  0
  4  5  1  0
  5  6  1  0
  7  8  1  0
  6  9  1  0
  8  9  1  0
  3 10  1  0
  9 10  2  0
  7 11  2  0
 10 11  1  0
 11 12  1  0
  2 13  1  0
 13 14  2  0
  1 15  1  0
 14 15  1  0
 15 16  2  0
 16 17  1  0
 12 18  1  0
 13 18  1  0
 17 18  2  0
M  CHG  1  11   1
M  END
