7NGW_UAW_A_301
     RDKit          3D

 17 18  0  0  0  0  0  0  0  0999 V2000
  -10.0598  -27.7710    2.0705 C   0  0  0  0  0  0  0  0  0  0  0  0
  -12.5319  -28.2178    2.3466 C   0  0  0  0  0  0  0  0  0  0  0  0
  -14.8441  -29.1327    2.5717 C   0  0  0  0  0  0  0  0  0  0  0  0
  -14.9251  -29.2524    1.1891 C   0  0  0  0  0  0  0  0  0  0  0  0
  -15.9666  -29.2936    3.3356 C   0  0  0  0  0  0  0  0  0  0  0  0
  -17.1717  -29.5755    2.7025 C   0  0  0  0  0  0  0  0  0  0  0  0
  -17.2295  -29.6907    1.3193 C   0  0  0  0  0  0  0  0  0  0  0  0
  -16.1042  -29.5308    0.5352 C   0  0  0  0  0  0  0  0  0  0  0  0
  -11.0862  -27.8363    4.3188 C   0  0  0  0  0  0  0  0  0  0  0  0
   -9.6980  -28.2996    4.7087 C   0  0  0  0  0  0  0  0  0  0  0  0
  -11.2482  -27.9473    2.8876 N   0  0  0  0  0  0  0  0  0  0  0  0
  -13.5538  -28.8421    3.1010 N   0  0  0  0  0  0  0  0  0  0  0  0
   -9.1902  -26.7753    2.8488 C   0  0  0  0  0  0  0  0  0  0  0  0
   -7.7923  -26.7193    4.9400 C   0  0  0  0  0  0  0  0  0  0  0  0
   -8.5978  -27.5830    3.9950 C   0  0  1  0  0  0  0  0  0  0  0  0
  -12.7325  -27.8782    1.1550 O   0  0  0  0  0  0  0  0  0  0  0  0
  -18.4616  -29.9741    0.7352 O   0  0  0  0  0  0  0  0  0  0  0  0
  3  4  2  0
  3  5  1  0
  5  6  2  0
  6  7  1  0
  4  8  1  0
  7  8  2  0
 10  9  1  1
  2 11  1  0
  9 11  1  6
  1 11  1  1
  3 12  1  0
  2 12  1  0
 13  1  1  6
 10 15  1  0
 13 15  1  0
 15 14  1  1
  2 16  2  0
  7 17  1  0
M  END
$$$$
