
     RDKit          3D

 25 26  0  0  0  0  0  0  0  0999 V2000
   13.9464    8.6832   17.5069 N   0  0  0  0  0  0  0  0  0  0  0  0
   14.1474    9.5221   16.4141 C   0  0  0  0  0  0  0  0  0  0  0  0
   15.2446    9.2480   15.6413 N   0  0  0  0  0  0  0  0  0  0  0  0
   16.2118    8.3283   15.9169 C   0  0  0  0  0  0  0  0  0  0  0  0
   15.9931    7.5217   17.1265 C   0  0  0  0  0  0  0  0  0  0  0  0
   14.8920    7.7308   17.8510 C   0  0  0  0  0  0  0  0  0  0  0  0
   13.4123   10.4627   16.1182 O   0  0  0  0  0  0  0  0  0  0  0  0
   17.2088    8.1762   15.2225 O   0  0  0  0  0  0  0  0  0  0  0  0
   12.8081    8.9710   18.4017 C   0  0  1  0  0  0  0  0  0  0  0  0
   11.4946    8.2483   18.0420 C   0  0  2  0  0  0  0  0  0  0  0  0
   10.6403    8.9751   17.1528 O   0  0  0  0  0  0  0  0  0  0  0  0
   10.8156    8.1403   19.3929 C   0  0  1  0  0  0  0  0  0  0  0  0
   11.9724    7.9800   20.3660 C   0  0  2  0  0  0  0  0  0  0  0  0
   13.1342    8.5853   19.7535 O   0  0  0  0  0  0  0  0  0  0  0  0
   10.1350    9.3772   19.6689 O   0  0  0  0  0  0  0  0  0  0  0  0
   12.2973    6.5280   20.7266 C   0  0  0  0  0  0  0  0  0  0  0  0
   11.5341    6.0621   21.8316 O   0  0  0  0  0  0  0  0  0  0  0  0
   11.1573    4.5011   21.8727 P   0  0  2  0  0  5  0  0  0  0  0  0
   10.1710    4.0520   20.8482 O   0  0  0  0  0  0  0  0  0  0  0  0
   10.5692    4.3266   23.3573 O   0  0  0  0  0  0  0  0  0  0  0  0
   12.5291    3.7266   21.9729 O   0  0  0  0  0  0  0  0  0  0  0  0
   13.5360    3.6665   23.1851 P   0  0  1  0  0  5  0  0  0  0  0  0
   14.9253    3.2329   22.8697 O   0  0  0  0  0  0  0  0  0  0  0  0
   13.4710    5.1094   23.8557 O   0  0  0  0  0  0  0  0  0  0  0  0
   12.8307    2.7421   24.2750 O   0  0  0  0  0  0  0  0  0  0  0  0
  1  2  4  0
  2  3  4  0
  3  4  4  0
  4  5  4  0
  1  6  4  0
  5  6  4  0
  2  7  2  0
  4  8  2  0
  9  1  1  6
  9 10  1  0
 10 11  1  6
 10 12  1  0
 12 13  1  0
  9 14  1  0
 13 14  1  0
 12 15  1  1
 13 16  1  6
 16 17  1  0
 17 18  1  0
 18 19  2  0
 18 20  1  1
 18 21  1  0
 21 22  1  0
 22 23  2  0
 22 24  1  0
 22 25  1  0
M  END
