7MSR_DCA_A_401
     RDKit          3D

 83 85  0  0  0  0  0  0  0  0999 V2000
    3.4676   -0.1518   -2.0366 N   0  0  0  0  0  0  0  0  0  0  0  0
    2.1648   -0.3484   -2.4201 C   0  0  0  0  0  0  0  0  0  0  0  0
    1.1669   -0.3931   -1.4867 N   0  0  0  0  0  0  0  0  0  0  0  0
    1.5020   -0.2249   -0.1836 C   0  0  0  0  0  0  0  0  0  0  0  0
    2.7800   -0.0375    0.2179 C   0  0  0  0  0  0  0  0  0  0  0  0
    3.8058    0.0037   -0.7213 C   0  0  0  0  0  0  0  0  0  0  0  0
    5.1705    0.1793   -0.3396 N   0  0  0  0  0  0  0  0  0  0  0  0
    2.8494    0.0199    1.5602 N   0  0  0  0  0  0  0  0  0  0  0  0
    1.5495   -0.1384    1.9341 C   0  0  0  0  0  0  0  0  0  0  0  0
    0.6923   -0.2689    0.8851 N   0  0  0  0  0  4  0  0  0  0  0  0
   -0.7201   -0.6669    0.9348 C   0  0  1  0  0  0  0  0  0  0  0  0
   -1.6143    0.4514    1.4952 C   0  0  2  0  0  0  0  0  0  0  0  0
   -1.9096    0.2532    2.8594 O   0  0  0  0  0  0  0  0  0  0  0  0
   -2.8503    0.4275    0.5971 C   0  0  2  0  0  0  0  0  0  0  0  0
   -4.0484    0.2261    1.3227 O   0  0  0  0  0  0  0  0  0  0  0  0
   -5.3374   -0.0423    0.2391 P   0  0  2  0  0  5  0  0  0  0  0  0
   -5.1716    0.8447   -0.9739 O   0  0  0  0  0  0  0  0  0  0  0  0
   -6.8210    0.2906    0.9865 O   0  0  0  0  0  0  0  0  0  0  0  0
   -5.3109   -1.6616   -0.2529 O   0  0  0  0  0  0  0  0  0  0  0  0
   -2.5851   -0.7830   -0.2978 C   0  0  2  0  0  0  0  0  0  0  0  0
   -1.1932   -0.9697   -0.3566 O   0  0  0  0  0  0  0  0  0  0  0  0
   -3.1549   -0.6116   -1.7092 C   0  0  0  0  0  0  0  0  0  0  0  0
   -4.5482   -0.8003   -1.6580 O   0  0  0  0  0  0  0  0  0  0  0  0
   -4.9792   -1.3989   -0.1202 P   0  0  2  0  0  5  0  0  0  0  0  0
   -6.0414   -0.5401    0.5377 O   0  0  0  0  0  0  0  0  0  0  0  0
   -3.6009   -1.4178    0.8627 O   0  0  0  0  0  0  0  0  0  0  0  0
   -5.5427   -2.9939   -0.2968 O   0  0  0  0  0  0  0  0  0  0  0  0
   -4.3283   -3.9144   -1.0643 P   0  0  2  0  0  5  0  0  0  0  0  0
   -4.2767   -3.5186   -2.5226 O   0  0  0  0  0  0  0  0  0  0  0  0
   -4.7580   -5.5488   -0.9525 O   0  0  0  0  0  0  0  0  0  0  0  0
   -2.7779   -3.6823   -0.3762 O   0  0  0  0  0  0  0  0  0  0  0  0
   -2.4102   -2.2551    1.5653 C   0  0  1  0  0  0  0  0  0  0  0  0
   -2.6516   -2.3370    0.0329 C   0  0  0  0  0  0  0  0  0  0  0  0
   -2.6934   -0.8047    2.0298 C   0  0  0  0  0  0  0  0  0  0  0  0
   -3.3774   -3.2068    2.3061 C   0  0  0  0  0  0  0  0  0  0  0  0
   -0.9210   -2.6070    1.8958 C   0  0  1  0  0  0  0  0  0  0  0  0
   -0.5090   -3.7261    1.1485 O   0  0  0  0  0  0  0  0  0  0  0  0
    0.0396   -1.4600    1.6603 C   0  0  0  0  0  0  0  0  0  0  0  0
    1.0582   -1.3485    2.3970 O   0  0  0  0  0  0  0  0  0  0  0  0
   -0.1952   -0.5116    0.6073 N   0  0  0  0  0  0  0  0  0  0  0  0
   -1.5328   -0.0484    0.2383 C   0  0  0  0  0  0  0  0  0  0  0  0
   -2.5391   -1.2015    0.2655 C   0  0  0  0  0  0  0  0  0  0  0  0
   -3.9541   -0.7025    0.2115 C   0  0  0  0  0  0  0  0  0  0  0  0
   -4.8551   -1.3360    0.8261 O   0  0  0  0  0  0  0  0  0  0  0  0
   -4.2824    0.4734   -0.5386 N   0  0  0  0  0  0  0  0  0  0  0  0
   -5.3395    1.3844   -0.1005 C   0  0  0  0  0  0  0  0  0  0  0  0
   -6.3914    1.5600   -1.1880 C   0  0  0  0  0  0  0  0  0  0  0  0
    1.9242   -0.4733   -3.4680 H   0  0  0  0  0  0  0  0  0  0  0  0
    5.9203    0.2042   -1.0685 H   0  0  0  0  0  0  0  0  0  0  0  0
    5.4402    0.2764    0.6650 H   0  0  0  0  0  0  0  0  0  0  0  0
    1.2389   -0.1889    2.9701 H   0  0  0  0  0  0  0  0  0  0  0  0
   -0.7977   -1.5861    1.5599 H   0  0  0  0  0  0  0  0  0  0  0  0
   -1.1168    1.4402    1.3801 H   0  0  0  0  0  0  0  0  0  0  0  0
   -2.3403   -0.6360    2.9577 H   0  0  0  0  0  0  0  0  0  0  0  0
   -2.8628    1.3488   -0.0371 H   0  0  0  0  0  0  0  0  0  0  0  0
   -7.5045    0.0408    0.3146 H   0  0  0  0  0  0  0  0  0  0  0  0
   -5.3806   -2.1796    0.5888 H   0  0  0  0  0  0  0  0  0  0  0  0
   -3.0400   -1.6942    0.1565 H   0  0  0  0  0  0  0  0  0  0  0  0
   -2.6868   -1.3796   -2.3653 H   0  0  0  0  0  0  0  0  0  0  0  0
   -2.8937    0.4000   -2.0964 H   0  0  0  0  0  0  0  0  0  0  0  0
   -3.8829   -1.8980    1.6814 H   0  0  0  0  0  0  0  0  0  0  0  0
   -5.6806   -5.5946   -1.3084 H   0  0  0  0  0  0  0  0  0  0  0  0
   -3.5658   -1.7404   -0.2008 H   0  0  0  0  0  0  0  0  0  0  0  0
   -1.7913   -1.8832   -0.5042 H   0  0  0  0  0  0  0  0  0  0  0  0
   -3.7377   -0.5043    1.7953 H   0  0  0  0  0  0  0  0  0  0  0  0
   -2.5563   -0.7058    3.1277 H   0  0  0  0  0  0  0  0  0  0  0  0
   -2.0069   -0.0890    1.5275 H   0  0  0  0  0  0  0  0  0  0  0  0
   -3.2898   -4.2427    1.9209 H   0  0  0  0  0  0  0  0  0  0  0  0
   -3.1668   -3.2140    3.3958 H   0  0  0  0  0  0  0  0  0  0  0  0
   -4.4266   -2.8804    2.1702 H   0  0  0  0  0  0  0  0  0  0  0  0
   -0.8723   -2.8711    2.9796 H   0  0  0  0  0  0  0  0  0  0  0  0
    0.2969   -4.0947    1.5970 H   0  0  0  0  0  0  0  0  0  0  0  0
    0.6209   -0.1012    0.0988 H   0  0  0  0  0  0  0  0  0  0  0  0
   -1.4918    0.3630   -0.7939 H   0  0  0  0  0  0  0  0  0  0  0  0
   -1.8653    0.7795    0.9037 H   0  0  0  0  0  0  0  0  0  0  0  0
   -2.3603   -1.8566   -0.6155 H   0  0  0  0  0  0  0  0  0  0  0  0
   -2.3771   -1.8178    1.1769 H   0  0  0  0  0  0  0  0  0  0  0  0
   -3.7412    0.6839   -1.4071 H   0  0  0  0  0  0  0  0  0  0  0  0
   -4.8997    2.3747    0.1396 H   0  0  0  0  0  0  0  0  0  0  0  0
   -5.8224    0.9773    0.8137 H   0  0  0  0  0  0  0  0  0  0  0  0
   -6.8049    0.5719   -1.4755 H   0  0  0  0  0  0  0  0  0  0  0  0
   -5.9356    2.0427   -2.0784 H   0  0  0  0  0  0  0  0  0  0  0  0
   -7.2168    2.2034   -0.8143 H   0  0  0  0  0  0  0  0  0  0  0  0
  1  2  4  0
  2  3  4  0
  3  4  4  0
  4  5  4  0
  1  6  4  0
  5  6  4  0
  6  7  1  0
  5  8  4  0
  8  9  4  0
  4 10  4  0
  9 10  4  0
 11 10  1  0
 11 12  1  0
 12 13  1  0
 12 14  1  0
 14 15  1  0
 16 15  1  1
 16 17  2  0
 16 18  1  0
 16 19  1  0
 14 20  1  0
 11 21  1  0
 20 21  1  0
 20 22  1  0
 22 23  1  0
 24 23  1  6
 24 25  2  0
 24 26  1  0
 24 27  1  0
 28 27  1  1
 28 29  2  0
 28 30  1  0
 28 31  1  0
 31 33  1  0
 32 33  1  6
 32 34  1  0
 32 35  1  0
 32 36  1  0
 36 37  1  0
 36 38  1  0
 38 39  2  0
 38 40  1  0
 40 41  1  0
 41 42  1  0
 42 43  1  0
 43 44  2  0
 43 45  1  0
 45 46  1  0
 46 47  1  0
  2 48  1  0
  7 49  1  0
  7 50  1  0
  9 51  1  0
 11 52  1  1
 12 53  1  1
 13 54  1  0
 14 55  1  6
 18 56  1  0
 19 57  1  0
 20 58  1  1
 22 59  1  0
 22 60  1  0
 26 61  1  0
 30 62  1  0
 33 63  1  0
 33 64  1  0
 34 65  1  0
 34 66  1  0
 34 67  1  0
 35 68  1  0
 35 69  1  0
 35 70  1  0
 36 71  1  1
 37 72  1  0
 40 73  1  0
 41 74  1  0
 41 75  1  0
 42 76  1  0
 42 77  1  0
 45 78  1  0
 46 79  1  0
 46 80  1  0
 47 81  1  0
 47 82  1  0
 47 83  1  0
M  CHG  1  10   1
M  END
