7SDD_4IP_A_500
     RDKit          3D

 44 44  0  0  0  0  0  0  0  0999 V2000
    9.8504   -0.6073   -7.3581 C   0  0  2  0  0  0  0  0  0  0  0  0
   10.2920   -0.4633   -8.6987 O   0  0  0  0  0  0  0  0  0  0  0  0
   10.3154    0.6180   -6.5132 C   0  0  2  0  0  0  0  0  0  0  0  0
   11.4829    1.1938   -7.0491 O   0  0  0  0  0  0  0  0  0  0  0  0
   10.5699    0.2296   -5.0468 C   0  0  2  0  0  0  0  0  0  0  0  0
   10.9488    1.3918   -4.3275 O   0  0  0  0  0  0  0  0  0  0  0  0
   11.7002   -0.8286   -4.9236 C   0  0  1  0  0  0  0  0  0  0  0  0
   11.4764   -1.5610   -3.7300 O   0  0  0  0  0  0  0  0  0  0  0  0
   11.7599   -1.8149   -6.1301 C   0  0  2  0  0  0  0  0  0  0  0  0
   12.6972   -1.3258   -7.0768 O   0  0  0  0  0  0  0  0  0  0  0  0
   10.3792   -1.9624   -6.8102 C   0  0  1  0  0  0  0  0  0  0  0  0
    9.4520   -2.5014   -5.8996 O   0  0  0  0  0  0  0  0  0  0  0  0
    9.1237    0.3728   -9.6225 P   0  0  1  0  0  5  0  0  0  0  0  0
    9.7629    0.8616  -10.9023 O   0  0  0  0  0  0  0  0  0  0  0  0
    7.8462   -0.6698  -10.0042 O   0  0  0  0  0  0  0  0  0  0  0  0
    8.5243    1.6980   -8.7560 O   0  0  0  0  0  0  0  0  0  0  0  0
    9.5944    2.3938   -4.0475 P   0  0  1  0  0  5  0  0  0  0  0  0
    8.5026    2.0677   -5.0422 O   0  0  0  0  0  0  0  0  0  0  0  0
    9.0157    2.1636   -2.4734 O   0  0  0  0  0  0  0  0  0  0  0  0
   10.0561    4.0104   -4.2361 O   0  0  0  0  0  0  0  0  0  0  0  0
   12.5612   -2.8758   -3.6218 P   0  0  2  0  0  5  0  0  0  0  0  0
   11.7357   -4.2178   -3.0057 O   0  0  0  0  0  0  0  0  0  0  0  0
   13.8411   -2.4850   -2.5849 O   0  0  0  0  0  0  0  0  0  0  0  0
   13.1059   -3.2132   -4.9915 O   0  0  0  0  0  0  0  0  0  0  0  0
   13.6870   -2.5906   -7.6611 P   0  0  2  0  0  5  0  0  0  0  0  0
   12.7512   -3.7745   -8.4272 O   0  0  0  0  0  0  0  0  0  0  0  0
   14.4478   -3.2174   -6.5144 O   0  0  0  0  0  0  0  0  0  0  0  0
   14.7913   -1.9547   -8.7741 O   0  0  0  0  0  0  0  0  0  0  0  0
    8.7372   -0.6631   -7.2739 H   0  0  0  0  0  0  0  0  0  0  0  0
    9.4955    1.3756   -6.5167 H   0  0  0  0  0  0  0  0  0  0  0  0
   11.7498    0.6431   -7.8304 H   0  0  0  0  0  0  0  0  0  0  0  0
    9.6204   -0.2339   -4.6822 H   0  0  0  0  0  0  0  0  0  0  0  0
   12.6622   -0.2588   -4.9154 H   0  0  0  0  0  0  0  0  0  0  0  0
   12.0455   -2.8140   -5.7204 H   0  0  0  0  0  0  0  0  0  0  0  0
   10.4714   -2.6670   -7.6683 H   0  0  0  0  0  0  0  0  0  0  0  0
    9.5649   -3.4878   -5.9202 H   0  0  0  0  0  0  0  0  0  0  0  0
    8.1612   -1.5667   -9.7261 H   0  0  0  0  0  0  0  0  0  0  0  0
    8.6347    1.4500   -7.8036 H   0  0  0  0  0  0  0  0  0  0  0  0
    9.2664    2.9898   -1.9885 H   0  0  0  0  0  0  0  0  0  0  0  0
    9.2096    4.4965   -4.4036 H   0  0  0  0  0  0  0  0  0  0  0  0
   12.0454   -4.2963   -2.0682 H   0  0  0  0  0  0  0  0  0  0  0  0
   13.5395   -1.6704   -2.1095 H   0  0  0  0  0  0  0  0  0  0  0  0
   12.1139   -3.2660   -8.9894 H   0  0  0  0  0  0  0  0  0  0  0  0
   14.6766   -2.5082   -9.5874 H   0  0  0  0  0  0  0  0  0  0  0  0
  1  2  1  0
  1  3  1  0
  3  4  1  0
  3  5  1  0
  5  6  1  0
  5  7  1  0
  7  8  1  0
  7  9  1  0
  9 10  1  0
  1 11  1  0
  9 11  1  0
 11 12  1  0
 13  2  1  1
 13 14  2  0
 13 15  1  0
 13 16  1  0
 17  6  1  6
 17 18  2  0
 17 19  1  0
 17 20  1  0
 21  8  1  6
 21 22  1  0
 21 23  1  0
 21 24  2  0
 25 10  1  1
 25 26  1  0
 25 27  2  0
 25 28  1  0
  1 29  1  6
  3 30  1  1
  4 31  1  0
  5 32  1  1
  7 33  1  1
  9 34  1  1
 11 35  1  6
 12 36  1  0
 15 37  1  0
 16 38  1  0
 19 39  1  0
 20 40  1  0
 22 41  1  0
 23 42  1  0
 26 43  1  0
 28 44  1  0
M  END
