7Q25_8J9_B_702
     RDKit          3D

 33 34  0  0  0  0  0  0  0  0999 V2000
  -43.9501   84.5924   -0.7947 C   0  0  0  0  0  0  0  0  0  0  0  0
  -46.1466   83.5108   -0.1347 C   0  0  0  0  0  0  0  0  0  0  0  0
  -44.7290   83.4574   -0.7027 C   0  0  0  0  0  0  0  0  0  0  0  0
  -42.6521   84.5215   -1.3111 C   0  0  0  0  0  0  0  0  0  0  0  0
  -42.1776   83.2902   -1.7164 C   0  0  0  0  0  0  0  0  0  0  0  0
  -42.9579   82.1643   -1.6539 C   0  0  0  0  0  0  0  0  0  0  0  0
  -44.2301   82.2337   -1.1307 C   0  0  0  0  0  0  0  0  0  0  0  0
  -49.6292   80.1439   -0.7480 C   0  0  2  0  0  0  0  0  0  0  0  0
  -48.8303   79.5519    0.3365 C   0  0  0  0  0  0  0  0  0  0  0  0
  -51.1103   80.0904   -0.3688 C   0  0  0  0  0  0  0  0  0  0  0  0
  -45.1742   79.0140   -6.4359 C   0  0  0  0  0  0  0  0  0  0  0  0
  -46.2272   78.6561   -5.3809 C   0  0  0  0  0  0  0  0  0  0  0  0
  -47.1634   79.7994   -5.0521 C   0  0  0  0  0  0  0  0  0  0  0  0
  -48.3435   79.3740   -4.1705 C   0  0  0  0  0  0  0  0  0  0  0  0
  -48.2110   79.7530   -2.6901 C   0  0  1  0  0  0  0  0  0  0  0  0
  -47.9457   81.2301   -2.5410 C   0  0  0  0  0  0  0  0  0  0  0  0
  -47.2554   83.1009   -1.0637 C   0  0  1  0  0  0  0  0  0  0  0  0
  -47.1811   83.9364   -2.3332 C   0  0  0  0  0  0  0  0  0  0  0  0
  -51.2787   79.8830    1.1223 C   0  0  0  0  0  0  0  0  0  0  0  0
  -52.6275   80.3654    1.6825 C   0  0  0  0  0  0  0  0  0  0  0  0
  -52.6165   81.2372    2.7530 C   0  0  0  0  0  0  0  0  0  0  0  0
  -53.8335   81.6968    3.2590 C   0  0  0  0  0  0  0  0  0  0  0  0
  -55.0153   81.2574    2.7042 C   0  0  0  0  0  0  0  0  0  0  0  0
  -55.0312   80.3833    1.6397 C   0  0  0  0  0  0  0  0  0  0  0  0
  -53.8252   79.9343    1.1272 C   0  0  0  0  0  0  0  0  0  0  0  0
  -47.2018   81.6898   -1.4236 N   0  0  0  0  0  0  0  0  0  0  0  0
  -49.4590   79.3755   -1.9991 N   0  0  0  0  0  0  0  0  0  0  0  0
  -47.9663   83.7042   -3.3159 O   0  0  0  0  0  0  0  0  0  0  0  0
  -46.3135   84.8195   -2.4188 O   0  0  0  0  0  0  0  0  0  0  0  0
  -40.8723   83.1851   -2.2439 O   0  0  0  0  0  0  0  0  0  0  0  0
  -48.3576   82.0397   -3.3447 O   0  0  0  0  0  0  0  0  0  0  0  0
  -48.1436   80.1691    1.3135 O   0  0  0  0  0  0  0  0  0  0  0  0
  -48.5356   78.2828    0.4186 O   0  0  0  0  0  0  0  0  0  0  0  0
  1  3  2  0
  2  3  1  0
  1  4  1  0
  4  5  2  0
  5  6  1  0
  6  7  2  0
  3  7  1  0
  8  9  1  0
  8 10  1  1
 11 12  1  0
 12 13  1  0
 13 14  1  0
 15 14  1  6
 15 16  1  0
 17  2  1  1
 17 18  1  0
 10 19  1  0
 19 20  1  0
 20 21  2  0
 21 22  1  0
 22 23  2  0
 23 24  1  0
 24 25  2  0
 20 25  1  0
 16 26  1  0
 17 26  1  0
 15 27  1  0
  8 27  1  0
 18 28  2  0
 18 29  1  0
  5 30  1  0
 16 31  2  0
  9 32  2  0
  9 33  1  0
M  END
