
     RDKit          3D

 36 41  0  0  0  0  0  0  0  0999 V2000
   54.6534  -23.0869   -8.8928 C   0  0  0  0  0  0  0  0  0  0  0  0
   55.9111  -23.3430  -11.0281 C   0  0  0  0  0  0  0  0  0  0  0  0
   56.9312  -21.5361  -12.1066 C   0  0  0  0  0  0  0  0  0  0  0  0
   56.6329  -17.7369  -12.3577 C   0  0  0  0  0  0  0  0  0  0  0  0
   55.8043  -16.6568  -12.0239 C   0  0  0  0  0  0  0  0  0  0  0  0
   54.5860  -16.8619  -11.3658 C   0  0  0  0  0  0  0  0  0  0  0  0
   54.1733  -14.3659  -11.5453 C   0  0  0  0  0  0  0  0  0  0  0  0
   53.4660  -15.6288   -9.4522 C   0  0  0  0  0  0  0  0  0  0  0  0
   53.7575  -25.5131   -5.5937 C   0  0  0  0  0  0  0  0  0  0  0  0
   52.6428  -24.8031   -6.2403 C   0  0  0  0  0  0  0  0  0  0  0  0
   53.0985  -23.5060   -6.9299 C   0  0  2  0  0  0  0  0  0  0  0  0
   51.9300  -22.4906   -7.1085 C   0  0  0  0  0  0  0  0  0  0  0  0
   51.9838  -21.7147   -8.4312 C   0  0  0  0  0  0  0  0  0  0  0  0
   51.3688  -22.6514   -9.4680 C   0  0  0  0  0  0  0  0  0  0  0  0
   50.4531  -23.5938   -8.6895 C   0  0  0  0  0  0  0  0  0  0  0  0
   50.5484  -23.1533   -7.2332 C   0  0  0  0  0  0  0  0  0  0  0  0
   54.1396  -24.9386   -9.9567 C   0  0  0  0  0  0  0  0  0  0  0  0
   54.9466  -23.7855  -10.0479 C   0  0  0  0  0  0  0  0  0  0  0  0
   56.2726  -19.0517  -12.0536 C   0  0  0  0  0  0  0  0  0  0  0  0
   53.6839  -15.7054  -10.9764 C   0  0  0  0  0  0  0  0  0  0  0  0
   53.2571  -13.2287  -11.0910 C   0  0  0  0  0  0  0  0  0  0  0  0
   53.6841  -14.2225   -8.8974 C   0  0  0  0  0  0  0  0  0  0  0  0
   54.2201  -18.1746  -11.0517 C   0  0  0  0  0  0  0  0  0  0  0  0
   55.0525  -19.2484  -11.3898 C   0  0  0  0  0  0  0  0  0  0  0  0
   57.5640  -23.6154  -12.6658 C   0  0  0  0  0  0  0  0  0  0  0  0
   56.6889  -24.2223  -11.7796 C   0  0  0  0  0  0  0  0  0  0  0  0
   56.8592  -25.6267  -11.9464 C   0  0  0  0  0  0  0  0  0  0  0  0
   57.8333  -25.8247  -12.9036 C   0  0  0  0  0  0  0  0  0  0  0  0
   54.6047  -26.0959   -5.0567 N   0  0  0  0  0  0  0  0  0  0  0  0
   53.7242  -23.8227   -8.2179 N   0  0  0  0  0  0  0  0  0  0  0  0
   53.3935  -24.9628   -8.8482 N   0  0  0  0  0  0  0  0  0  0  0  0
   56.0420  -22.0056  -11.2156 N   0  0  0  0  0  0  0  0  0  0  0  0
   57.0725  -20.1663  -12.3244 N   0  0  0  0  0  0  0  0  0  0  0  0
   52.9583  -13.2097   -9.6561 N   0  0  0  0  0  0  0  0  0  0  0  0
   57.7297  -22.3023  -12.8688 N   0  0  0  0  0  0  0  0  0  0  0  0
   58.2542  -24.5922  -13.3298 N   0  0  0  0  0  0  0  0  0  0  0  0
  4  5  4  0
  5  6  4  0
  9 10  1  0
 11 10  1  6
 11 12  1  0
 12 13  1  0
 13 14  1  0
 14 15  1  0
 15 16  1  0
 12 16  1  0
 17 18  4  0
  1 18  4  0
  2 18  1  0
  4 19  4  0
  8 20  1  0
  6 20  1  0
  7 20  1  0
  7 21  1  0
  8 22  1  0
  6 23  4  0
 23 24  4  0
 19 24  4  0
  2 26  4  0
 25 26  4  0
 26 27  4  0
 27 28  4  0
  9 29  3  0
 11 30  1  0
  1 30  4  0
 30 31  4  0
 17 31  4  0
  2 32  4  0
  3 32  4  0
 19 33  1  0
  3 33  1  0
 22 34  1  0
 21 34  1  0
  3 35  4  0
 25 35  4  0
 28 36  4  0
 25 36  4  0
M  END
