8FV9_80J_BBB_801
     RDKit          3D

 29 30  0  0  0  0  0  0  0  0999 V2000
  -29.3458  -11.1855   19.9836 C   0  0  2  0  0  0  0  0  0  0  0  0
  -31.2985  -12.6092   19.6881 C   0  0  0  0  0  0  0  0  0  0  0  0
  -28.1520  -12.1041   19.9332 C   0  0  1  0  0  0  0  0  0  0  0  0
  -27.0003  -11.1243   19.7725 C   0  0  1  0  0  0  0  0  0  0  0  0
  -32.6697  -12.5476   17.7983 C   0  0  0  0  0  0  0  0  0  0  0  0
  -27.6542   -9.8358   20.2273 C   0  0  1  0  0  0  0  0  0  0  0  0
  -31.8606  -11.5512   17.2763 C   0  0  0  0  0  0  0  0  0  0  0  0
  -26.8718   -8.6253   19.7668 C   0  0  0  0  0  0  0  0  0  0  0  0
  -30.7679  -11.1211   18.0228 C   0  0  0  0  0  0  0  0  0  0  0  0
  -28.0389  -12.7488   21.1575 F   0  0  0  0  0  0  0  0  0  0  0  0
  -30.4775  -11.6457   19.2339 N   0  0  0  0  0  0  0  0  0  0  0  0
  -32.3661  -13.0586   19.0051 N   0  0  0  0  0  0  0  0  0  0  0  0
  -33.8071  -13.0565   17.1186 N   0  0  0  0  0  0  0  0  0  0  0  0
  -24.5473   -8.1844   18.3745 O   0  0  0  0  0  0  0  0  0  0  0  0
  -26.7940  -10.2510   14.5129 O   0  0  0  0  0  0  0  0  0  0  0  0
  -29.6752   -6.1844   15.8362 O   0  0  0  0  0  0  0  0  0  0  0  0
  -31.0879  -13.1485   20.8182 O   0  0  0  0  0  0  0  0  0  0  0  0
  -25.7951   -6.1161   17.4931 O   0  0  0  0  0  0  0  0  0  0  0  0
  -27.8523  -10.0760   16.8570 O   0  0  0  0  0  0  0  0  0  0  0  0
  -30.8701   -8.4482   15.1791 O   0  0  0  0  0  0  0  0  0  0  0  0
  -25.9329  -11.4495   20.6073 O   0  0  0  0  0  0  0  0  0  0  0  0
  -25.6911   -8.5373   16.0922 O   0  0  0  0  0  0  0  0  0  0  0  0
  -28.1821   -8.1286   14.8562 O   0  0  0  0  0  0  0  0  0  0  0  0
  -29.3328   -8.2830   17.4174 O   0  0  0  0  0  0  0  0  0  0  0  0
  -28.8882   -9.9256   19.5875 O   0  0  0  0  0  0  0  0  0  0  0  0
  -27.1718   -8.3047   18.4506 O   0  0  0  0  0  0  0  0  0  0  0  0
  -25.7936   -7.7977   17.6025 P   0  0  1  0  0  5  0  0  0  0  0  0
  -27.1470   -9.2215   15.5896 P   0  0  1  0  0  5  0  0  0  0  0  0
  -29.4814   -7.6903   15.8296 P   0  0  1  0  0  5  0  0  0  0  0  0
  1  3  1  0
  3  4  1  0
  4  6  1  0
  5  7  1  0
  6  8  1  0
  7  9  2  0
  3 10  1  1
  9 11  1  0
  2 11  1  0
  1 11  1  6
  5 12  2  0
  2 12  1  0
  5 13  1  0
  2 17  2  0
  4 21  1  1
  1 25  1  0
  6 25  1  6
  8 26  1  6
 14 27  2  0
 27 22  1  0
 26 27  1  0
 27 18  1  6
 28 23  1  0
 15 28  2  0
 28 19  1  1
 22 28  1  0
 16 29  2  0
 29 24  1  1
 23 29  1  0
 20 29  1  0
M  END
$$$$
