7UJ5_DGL_B_301
     RDKit          3D

 10  9  0  0  0  0  0  0  0  0999 V2000
  -41.3865   -0.9628  -27.3672 N   0  0  0  0  0  0  0  0  0  0  0  0
  -41.9297   -0.8378  -28.7356 C   0  0  1  0  0  0  0  0  0  0  0  0
  -42.9120    0.2726  -28.7196 C   0  0  0  0  0  0  0  0  0  0  0  0
  -42.9209    1.1056  -27.7440 O   0  0  0  0  0  0  0  0  0  0  0  0
  -40.7874   -0.6155  -29.7067 C   0  0  0  0  0  0  0  0  0  0  0  0
  -39.6985   -1.6585  -29.5909 C   0  0  0  0  0  0  0  0  0  0  0  0
  -38.6376   -1.3839  -30.5971 C   0  0  0  0  0  0  0  0  0  0  0  0
  -38.6911   -0.4545  -31.4317 O   0  0  0  0  0  0  0  0  0  0  0  0
  -37.5298   -2.2166  -30.5921 O   0  0  0  0  0  0  0  0  0  0  0  0
  -43.8596    0.4951  -29.7025 O   0  0  0  0  0  0  0  0  0  0  0  0
  2  1  1  1
  2  3  1  0
  3  4  2  0
  2  5  1  0
  5  6  1  0
  6  7  1  0
  7  8  2  0
  7  9  1  0
  3 10  1  0
M  END
$$$$
