1GKC_NFH_B_1449
     RDKit          3D

 22 21  0  0  0  0  0  0  0  0999 V2000
   54.6998   22.1422  127.1919 C   0  0  0  0  0  0  0  0  0  0  0  0
   52.4330   19.7474  125.3605 N   0  0  0  0  0  0  0  0  0  0  0  0
   54.5838   23.2027  126.5289 O   0  0  0  0  0  0  0  0  0  0  0  0
   55.3077   24.3583  129.6738 C   0  0  0  0  0  0  0  0  0  0  0  0
   54.9610   22.1461  128.5177 N   0  0  0  0  0  0  0  0  0  0  0  0
   56.4710   24.2306  130.1239 O   0  0  0  0  0  0  0  0  0  0  0  0
   54.7635   25.5395  129.2688 N   0  0  0  0  0  0  0  0  0  0  0  0
   54.5409   20.7473  126.4785 C   0  0  2  0  0  0  0  0  0  0  0  0
   55.0243   20.7590  124.9662 C   0  0  0  0  0  0  0  0  0  0  0  0
   56.4620   21.2516  124.6172 C   0  0  1  0  0  0  0  0  0  0  0  0
   51.4613   20.3083  124.6226 C   0  0  0  0  0  0  0  0  0  0  0  0
   51.6512   21.0013  123.6793 O   0  0  0  0  0  0  0  0  0  0  0  0
   53.0026   20.3884  126.5760 C   0  0  0  0  0  0  0  0  0  0  0  0
   52.8938   18.5920  124.9820 O   0  0  0  0  0  0  0  0  0  0  0  0
   54.3282   23.1005  129.5285 C   0  0  1  0  0  0  0  0  0  0  0  0
   54.0112   22.3553  130.9277 C   0  0  1  0  0  0  0  0  0  0  0  0
   57.4524   20.0636  124.6049 C   0  0  0  0  0  0  0  0  0  0  0  0
   56.4867   21.7926  123.1921 C   0  0  0  0  0  0  0  0  0  0  0  0
   53.7301   23.3611  132.1033 C   0  0  0  0  0  0  0  0  0  0  0  0
   52.7784   21.4177  130.7854 C   0  0  0  0  0  0  0  0  0  0  0  0
   55.1882   21.4393  131.4418 C   0  0  0  0  0  0  0  0  0  0  0  0
   55.5298   26.7557  128.9162 C   0  0  0  0  0  0  0  0  0  0  0  0
  1  3  2  0
  1  5  1  0
  4  6  2  0
  4  7  1  0
  1  8  1  0
  8  9  1  6
  9 10  1  0
  2 11  1  0
 11 12  2  0
  8 13  1  0
  2 13  1  0
  2 14  1  0
  4 15  1  0
 15  5  1  6
 15 16  1  0
 10 17  1  6
 10 18  1  0
 16 19  1  1
 16 20  1  0
 16 21  1  0
  7 22  1  0
M  END
