1GKC_NFH_A_1448
     RDKit          3D

 22 21  0  0  0  0  0  0  0  0999 V2000
   53.9249   22.2746  127.0396 C   0  0  0  0  0  0  0  0  0  0  0  0
   57.0761   23.2158  127.2606 N   0  0  0  0  0  0  0  0  0  0  0  0
   53.7141   23.4654  127.3761 O   0  0  0  0  0  0  0  0  0  0  0  0
   50.7792   22.3110  125.6784 C   0  0  0  0  0  0  0  0  0  0  0  0
   53.0965   21.5820  126.2290 N   0  0  0  0  0  0  0  0  0  0  0  0
   50.0735   21.2910  125.8348 O   0  0  0  0  0  0  0  0  0  0  0  0
   50.3668   23.5776  125.9615 N   0  0  0  0  0  0  0  0  0  0  0  0
   55.1935   21.5405  127.5642 C   0  0  2  0  0  0  0  0  0  0  0  0
   55.4749   21.8365  129.0940 C   0  0  0  0  0  0  0  0  0  0  0  0
   54.3733   21.5766  130.1514 C   0  0  1  0  0  0  0  0  0  0  0  0
   56.6789   24.4841  127.1403 C   0  0  0  0  0  0  0  0  0  0  0  0
   55.5647   24.8525  127.2990 O   0  0  0  0  0  0  0  0  0  0  0  0
   56.3753   22.0770  126.6736 C   0  0  0  0  0  0  0  0  0  0  0  0
   58.1314   22.9603  127.9437 O   0  0  0  0  0  0  0  0  0  0  0  0
   52.2724   22.2090  125.1266 C   0  0  1  0  0  0  0  0  0  0  0  0
   52.4211   21.4138  123.7292 C   0  0  1  0  0  0  0  0  0  0  0  0
   54.3149   20.0744  130.5104 C   0  0  0  0  0  0  0  0  0  0  0  0
   54.7514   22.2753  131.4448 C   0  0  0  0  0  0  0  0  0  0  0  0
   51.3276   21.8437  122.6779 C   0  0  0  0  0  0  0  0  0  0  0  0
   53.8197   21.6531  123.1005 C   0  0  0  0  0  0  0  0  0  0  0  0
   52.2833   19.8481  123.8725 C   0  0  0  0  0  0  0  0  0  0  0  0
   49.1619   23.9077  126.7585 C   0  0  0  0  0  0  0  0  0  0  0  0
  1  3  2  0
  1  5  1  0
  4  6  2  0
  4  7  1  0
  1  8  1  0
  8  9  1  1
  9 10  1  0
  2 11  1  0
 11 12  2  0
  8 13  1  0
  2 13  1  0
  2 14  1  0
  4 15  1  0
 15  5  1  1
 15 16  1  0
 10 17  1  1
 10 18  1  0
 16 19  1  6
 16 20  1  0
 16 21  1  0
  7 22  1  0
M  END
