
     RDKit          3D

 29 33  0  0  0  0  0  0  0  0999 V2000
   17.4298   20.1978   66.2117 C   0  0  0  0  0  0  0  0  0  0  0  0
   15.5389   18.8054   64.5563 C   0  0  0  0  0  0  0  0  0  0  0  0
   17.9721   20.4505   67.6207 C   0  0  0  0  0  0  0  0  0  0  0  0
   21.2441   19.0245   65.7877 C   0  0  0  0  0  0  0  0  0  0  0  0
   23.1019   22.2879   65.0957 C   0  0  0  0  0  0  0  0  0  0  0  0
   24.1523   22.2474   66.0091 C   0  0  0  0  0  0  0  0  0  0  0  0
   24.2213   21.1319   66.8464 C   0  0  0  0  0  0  0  0  0  0  0  0
   23.7734   19.1967   67.8152 C   0  0  0  0  0  0  0  0  0  0  0  0
   23.2713   13.3713   65.4645 C   0  0  0  0  0  0  0  0  0  0  0  0
   21.2409   15.3530   65.5420 C   0  0  0  0  0  0  0  0  0  0  0  0
   20.4662   14.3070   64.7732 C   0  0  0  0  0  0  0  0  0  0  0  0
   20.5174   14.2434   66.2745 C   0  0  0  0  0  0  0  0  0  0  0  0
   20.7585   16.7730   65.6233 C   0  0  0  0  0  0  0  0  0  0  0  0
   19.4078   17.0714   65.6380 C   0  0  0  0  0  0  0  0  0  0  0  0
   19.0314   18.3965   65.7326 C   0  0  0  0  0  0  0  0  0  0  0  0
   15.8998   20.4408   66.2119 C   0  0  0  0  0  0  0  0  0  0  0  0
   17.0386   18.4942   64.4721 C   0  0  0  0  0  0  0  0  0  0  0  0
   22.2349   20.1110   65.8743 C   0  0  0  0  0  0  0  0  0  0  0  0
   22.1705   21.2487   65.0302 C   0  0  0  0  0  0  0  0  0  0  0  0
   23.3055   20.0789   66.8063 C   0  0  0  0  0  0  0  0  0  0  0  0
   23.6680   15.6266   66.8410 N   0  0  0  0  0  0  0  0  0  0  0  0
   17.6932   18.8028   65.7675 N   0  0  0  0  0  0  0  0  0  0  0  0
   19.9469   19.3684   65.8194 N   0  0  0  0  0  0  0  0  0  0  0  0
   24.8682   19.6377   68.4401 N   0  0  0  0  0  0  0  0  0  0  0  0
   25.1182   20.8073   67.8304 N   0  0  0  0  0  0  0  0  0  0  0  0
   21.6790   17.7571   65.6972 N   0  0  0  0  0  0  0  0  0  0  0  0
   15.3203   20.1789   64.9210 O   0  0  0  0  0  0  0  0  0  0  0  0
   23.4900   15.6572   64.2153 O   0  0  0  0  0  0  0  0  0  0  0  0
   23.0726   15.1379   65.5043 S   0  0  0  0  0  6  0  0  0  0  0  0
  1  3  1  0
  5  6  4  0
  6  7  4  0
 10 11  1  0
 11 12  1  0
 10 12  1  0
 10 13  1  0
 13 14  4  0
 14 15  4  0
  1 16  1  0
  2 17  1  0
  4 18  1  0
 18 19  4  0
  5 19  4  0
  8 20  4  0
 18 20  4  0
  7 20  4  0
 17 22  1  0
  1 22  1  0
 15 22  1  0
 15 23  4  0
  4 23  4  0
  8 24  4  0
 24 25  4  0
  7 25  4  0
 13 26  4  0
  4 26  4  0
  2 27  1  0
 16 27  1  0
 10 29  1  0
 29  9  1  0
 21 29  2  0
 28 29  2  0
M  END
