
     RDKit          3D

 26 27  0  0  0  0  0  0  0  0999 V2000
   -2.4682  -32.5757  -70.8924 C   0  0  0  0  0  0  0  0  0  0  0  0
   -1.7823  -31.4105  -71.2607 C   0  0  0  0  0  0  0  0  0  0  0  0
    0.3142  -24.5953  -68.2287 C   0  0  0  0  0  0  0  0  0  0  0  0
    1.4704  -26.2692  -66.8569 C   0  0  0  0  0  0  0  0  0  0  0  0
   -1.2306  -30.4819  -70.2030 C   0  0  0  0  0  0  0  0  0  0  0  0
    2.2070  -27.7215  -68.6015 C   0  0  0  0  0  0  0  0  0  0  0  0
    0.3590  -27.1400  -70.2201 C   0  0  0  0  0  0  0  0  0  0  0  0
   -1.6383  -31.1071  -72.6215 C   0  0  0  0  0  0  0  0  0  0  0  0
    1.9297  -27.6923  -67.1070 C   0  0  0  0  0  0  0  0  0  0  0  0
    1.3580  -26.5915  -69.1888 C   0  0  1  0  0  0  0  0  0  0  0  0
   -2.9934  -33.4245  -71.8679 C   0  0  0  0  0  0  0  0  0  0  0  0
   -1.2085  -29.0110  -70.6437 C   0  0  1  0  0  0  0  0  0  0  0  0
   -2.8412  -33.1157  -73.2183 C   0  0  0  0  0  0  0  0  0  0  0  0
   -2.6547  -28.5079  -70.6760 C   0  0  0  0  0  0  0  0  0  0  0  0
   -2.1649  -31.9570  -73.5951 C   0  0  0  0  0  0  0  0  0  0  0  0
   -3.1740  -27.8857  -71.5915 O   0  0  0  0  0  0  0  0  0  0  0  0
    0.2729  -26.7002  -71.3625 O   0  0  0  0  0  0  0  0  0  0  0  0
   -3.4015  -28.8617  -69.6069 O   0  0  0  0  0  0  0  0  0  0  0  0
    0.6222  -26.0153  -68.0233 N   0  0  0  0  0  0  0  0  0  0  0  0
   -1.1969  -24.3372  -68.2371 C   0  0  0  0  0  0  0  0  0  0  0  0
   -1.6898  -23.9028  -66.8545 C   0  0  0  0  0  0  0  0  0  0  0  0
   -2.5017  -22.6079  -66.9347 C   0  0  0  0  0  0  0  0  0  0  0  0
   -1.8164  -21.4762  -66.1657 C   0  0  0  0  0  0  0  0  0  0  0  0
   -2.7357  -20.7858  -65.1560 C   0  0  0  0  0  0  0  0  0  0  0  0
   -2.2913  -20.9595  -63.7119 C   0  0  0  0  0  0  0  0  0  0  0  0
   -0.3775  -28.2066  -69.7510 N   0  0  0  0  0  0  0  0  0  0  0  0
  1  2  4  0
  2  5  1  0
  2  8  4  0
  4  9  1  0
  6  9  1  0
  6 10  1  0
 10  7  1  6
  1 11  4  0
 12  5  1  1
 11 13  4  0
 12 14  1  0
 13 15  4  0
  8 15  4  0
 14 16  2  0
  7 17  2  0
 14 18  1  0
  4 19  1  0
  3 19  1  0
 10 19  1  0
  3 20  1  0
 20 21  1  0
 21 22  1  0
 22 23  1  0
 23 24  1  0
 24 25  1  0
  7 26  1  0
 12 26  1  0
M  END
