7MMH_ZJY_A_1202
     RDKit          3D

104110  0  0  0  0  0  0  0  0999 V2000
  -16.2012   21.7526  -15.6492 C   0  0  0  0  0  0  0  0  0  0  0  0
  -18.8661   18.5306  -17.2214 C   0  0  1  0  0  0  0  0  0  0  0  0
  -15.1753   16.4159  -14.4518 C   0  0  0  0  0  0  0  0  0  0  0  0
  -15.1618   13.6671  -14.2633 C   0  0  0  0  0  0  0  0  0  0  0  0
  -16.0329   15.7543  -13.5590 C   0  0  0  0  0  0  0  0  0  0  0  0
  -13.4482   12.1847  -15.9247 C   0  0  0  0  0  0  0  0  0  0  0  0
  -14.2922   20.7792  -14.2835 C   0  0  1  0  0  0  0  0  0  0  0  0
  -13.4794   19.4859  -14.3923 C   0  0  2  0  0  0  0  0  0  0  0  0
  -14.2943   18.5822  -15.3210 C   0  0  2  0  0  0  0  0  0  0  0  0
  -15.0831   19.5428  -16.2039 C   0  0  1  0  0  0  0  0  0  0  0  0
  -13.4086   21.9954  -14.3088 C   0  0  0  0  0  0  0  0  0  0  0  0
  -12.3430   23.9410  -13.0917 C   0  0  2  0  0  0  0  0  0  0  0  0
  -16.4939   22.2531  -17.0463 C   0  0  2  0  0  0  0  0  0  0  0  0
  -16.8681   19.8579  -17.8310 C   0  0  0  0  0  0  0  0  0  0  0  0
  -17.2836   23.5813  -17.0671 C   0  0  1  0  0  0  0  0  0  0  0  0
  -16.4948   24.7707  -16.4868 C   0  0  2  0  0  0  0  0  0  0  0  0
  -14.3053   14.3298  -15.1644 C   0  0  0  0  0  0  0  0  0  0  0  0
  -13.4540   13.5927  -15.9920 C   0  0  0  0  0  0  0  0  0  0  0  0
  -14.2915   11.5370  -15.0090 C   0  0  0  0  0  0  0  0  0  0  0  0
  -15.1474   12.2726  -14.1820 C   0  0  0  0  0  0  0  0  0  0  0  0
  -12.9906   10.9561  -18.0541 C   0  0  2  0  0  0  0  0  0  0  0  0
  -16.9581   16.5248  -12.6725 C   0  0  1  0  0  0  0  0  0  0  0  0
  -10.8777   23.8817  -13.4822 C   0  0  0  0  0  0  0  0  0  0  0  0
   -9.3287   22.5885  -16.8869 C   0  0  2  0  0  0  0  0  0  0  0  0
   -8.7141   23.5753  -17.8694 C   0  0  2  0  0  0  0  0  0  0  0  0
   -8.1916   22.1417  -17.7928 C   0  0  2  0  0  0  0  0  0  0  0  0
  -10.7220   22.0600  -17.2248 C   0  0  1  0  0  0  0  0  0  0  0  0
  -13.2157   25.1841  -13.3166 C   0  0  2  0  0  0  0  0  0  0  0  0
  -12.5824   26.3868  -13.9755 C   0  0  0  0  0  0  0  0  0  0  0  0
  -12.6315   26.6093  -15.3016 C   0  0  0  0  0  0  0  0  0  0  0  0
  -13.3474   25.7169  -16.2829 C   0  0  1  0  0  0  0  0  0  0  0  0
  -14.5887   26.4148  -16.8565 C   0  0  1  0  0  0  0  0  0  0  0  0
  -12.6759   24.8610  -11.9194 C   0  0  2  0  0  0  0  0  0  0  0  0
  -15.5512   25.4136  -17.5195 C   0  0  2  0  0  0  0  0  0  0  0  0
  -19.1776   17.1708  -16.5665 C   0  0  2  0  0  0  0  0  0  0  0  0
  -20.3581   16.3783  -17.1191 C   0  0  2  0  0  0  0  0  0  0  0  0
  -20.4717   17.0801  -15.7627 C   0  0  1  0  0  0  0  0  0  0  0  0
  -17.9805   16.3489  -16.0536 C   0  0  2  0  0  0  0  0  0  0  0  0
  -17.7538   16.6583  -14.7251 F   0  0  0  0  0  0  0  0  0  0  0  0
  -16.8237   16.6029  -16.7708 F   0  0  0  0  0  0  0  0  0  0  0  0
  -18.2739   15.0016  -16.1574 F   0  0  0  0  0  0  0  0  0  0  0  0
  -15.1784   20.7701  -15.4360 N   0  0  0  0  0  0  0  0  0  0  0  0
  -13.0889   22.6805  -13.0911 N   0  0  0  0  0  0  0  0  0  0  0  0
  -17.2564   21.2357  -17.7737 N   0  0  0  0  0  0  0  0  0  0  0  0
  -14.3295   15.6858  -15.2303 N   0  0  0  0  0  0  0  0  0  0  0  0
  -16.0015   14.3970  -13.4852 N   0  0  0  0  0  0  0  0  0  0  0  0
  -10.3762   22.7614  -14.2220 N   0  0  0  0  0  0  0  0  0  0  0  0
  -12.9171   22.3849  -15.4035 O   0  0  0  0  0  0  0  0  0  0  0  0
  -16.8529   22.1873  -14.6602 O   0  0  0  0  0  0  0  0  0  0  0  0
  -17.5155   18.9344  -17.0080 O   0  0  0  0  0  0  0  0  0  0  0  0
  -15.9404   19.4846  -18.6001 O   0  0  0  0  0  0  0  0  0  0  0  0
  -15.2090   17.8104  -14.5414 O   0  0  0  0  0  0  0  0  0  0  0  0
  -12.6258   11.4012  -16.7509 O   0  0  0  0  0  0  0  0  0  0  0  0
  -10.0841   24.8024  -13.1384 O   0  0  0  0  0  0  0  0  0  0  0  0
   -8.2736   24.2018  -14.9542 O   0  0  0  0  0  0  0  0  0  0  0  0
   -7.9718   21.7940  -14.7073 O   0  0  0  0  0  0  0  0  0  0  0  0
   -8.9245   22.8624  -15.1621 S   0  0  2  0  0  6  0  0  0  0  0  0
  -19.0602   18.4545  -18.3145 H   0  0  0  0  0  0  0  0  0  0  0  0
  -19.5429   19.3009  -16.7947 H   0  0  0  0  0  0  0  0  0  0  0  0
  -14.9040   20.7636  -13.3545 H   0  0  0  0  0  0  0  0  0  0  0  0
  -13.3281   19.0230  -13.3919 H   0  0  0  0  0  0  0  0  0  0  0  0
  -12.4863   19.6691  -14.8586 H   0  0  0  0  0  0  0  0  0  0  0  0
  -13.6476   17.9249  -15.9426 H   0  0  0  0  0  0  0  0  0  0  0  0
  -14.5424   19.7430  -17.1547 H   0  0  0  0  0  0  0  0  0  0  0  0
  -16.0923   19.1326  -16.4270 H   0  0  0  0  0  0  0  0  0  0  0  0
  -15.5137   22.4225  -17.5394 H   0  0  0  0  0  0  0  0  0  0  0  0
  -17.5867   23.8162  -18.1141 H   0  0  0  0  0  0  0  0  0  0  0  0
  -18.2238   23.4502  -16.4858 H   0  0  0  0  0  0  0  0  0  0  0  0
  -15.9310   24.4572  -15.5837 H   0  0  0  0  0  0  0  0  0  0  0  0
  -17.2205   25.5439  -16.1527 H   0  0  0  0  0  0  0  0  0  0  0  0
  -12.8094   14.1188  -16.6846 H   0  0  0  0  0  0  0  0  0  0  0  0
  -14.2885   10.4560  -14.9446 H   0  0  0  0  0  0  0  0  0  0  0  0
  -15.7959   11.7547  -13.4836 H   0  0  0  0  0  0  0  0  0  0  0  0
  -13.9318   10.3688  -18.0058 H   0  0  0  0  0  0  0  0  0  0  0  0
  -12.1883   10.3025  -18.4575 H   0  0  0  0  0  0  0  0  0  0  0  0
  -13.1163   11.8258  -18.7346 H   0  0  0  0  0  0  0  0  0  0  0  0
  -17.9005   15.9529  -12.5277 H   0  0  0  0  0  0  0  0  0  0  0  0
  -16.4920   16.7052  -11.6801 H   0  0  0  0  0  0  0  0  0  0  0  0
  -17.1920   17.5069  -13.1363 H   0  0  0  0  0  0  0  0  0  0  0  0
   -8.0126   24.3212  -17.4465 H   0  0  0  0  0  0  0  0  0  0  0  0
   -9.3046   23.7815  -18.7849 H   0  0  0  0  0  0  0  0  0  0  0  0
   -8.4787   21.5208  -18.6654 H   0  0  0  0  0  0  0  0  0  0  0  0
   -7.1906   22.0566  -17.3217 H   0  0  0  0  0  0  0  0  0  0  0  0
  -11.4822   22.6690  -16.6950 H   0  0  0  0  0  0  0  0  0  0  0  0
  -10.9297   22.0991  -18.3166 H   0  0  0  0  0  0  0  0  0  0  0  0
  -10.8094   21.0063  -16.8866 H   0  0  0  0  0  0  0  0  0  0  0  0
  -14.3124   25.0298  -13.4164 H   0  0  0  0  0  0  0  0  0  0  0  0
  -12.0588   27.1085  -13.3550 H   0  0  0  0  0  0  0  0  0  0  0  0
  -12.1622   27.5067  -15.6925 H   0  0  0  0  0  0  0  0  0  0  0  0
  -12.6450   25.4710  -17.1089 H   0  0  0  0  0  0  0  0  0  0  0  0
  -13.6365   24.7597  -15.8145 H   0  0  0  0  0  0  0  0  0  0  0  0
  -15.1262   26.9803  -16.0621 H   0  0  0  0  0  0  0  0  0  0  0  0
  -14.2534   27.1519  -17.6173 H   0  0  0  0  0  0  0  0  0  0  0  0
  -11.8393   25.5021  -11.5623 H   0  0  0  0  0  0  0  0  0  0  0  0
  -13.4382   24.4678  -11.2152 H   0  0  0  0  0  0  0  0  0  0  0  0
  -16.1676   25.9512  -18.2743 H   0  0  0  0  0  0  0  0  0  0  0  0
  -14.9659   24.6403  -18.0630 H   0  0  0  0  0  0  0  0  0  0  0  0
  -20.2961   15.2726  -17.0396 H   0  0  0  0  0  0  0  0  0  0  0  0
  -20.9616   16.8590  -17.9180 H   0  0  0  0  0  0  0  0  0  0  0  0
  -20.4762   16.3779  -14.9023 H   0  0  0  0  0  0  0  0  0  0  0  0
  -21.1336   17.9720  -15.7794 H   0  0  0  0  0  0  0  0  0  0  0  0
  -13.3384   22.2359  -12.1788 H   0  0  0  0  0  0  0  0  0  0  0  0
  -18.0967   21.5346  -18.3199 H   0  0  0  0  0  0  0  0  0  0  0  0
  -10.9505   21.8945  -14.3154 H   0  0  0  0  0  0  0  0  0  0  0  0
  3  5  2  0
  7  8  1  0
  8  9  1  0
  9 10  1  0
  7 11  1  0
  1 13  1  0
 13 15  1  0
 15 16  1  0
  4 17  1  0
 17 18  1  0
  6 18  2  0
  6 19  1  0
  4 20  1  0
 19 20  2  0
  5 22  1  0
 12 23  1  6
 24 25  1  0
 24 26  1  0
 25 26  1  0
 24 27  1  0
 12 28  1  0
 28 29  1  0
 29 30  2  0
 30 31  1  0
 31 32  1  0
 28 33  1  0
 12 33  1  0
 32 34  1  0
 16 34  1  0
  2 35  1  0
 35 36  1  0
 36 37  1  0
 35 37  1  0
 35 38  1  1
 38 39  1  1
 38 40  1  0
 38 41  1  0
  1 42  1  0
  7 42  1  0
 10 42  1  0
 12 43  1  0
 11 43  1  0
 14 44  1  0
 13 44  1  0
  3 45  1  0
 17 45  2  0
  5 46  1  0
  4 46  2  0
 23 47  1  0
 11 48  2  0
  1 49  2  0
  2 50  1  0
 14 50  1  0
 14 51  2  0
  3 52  1  0
  9 52  1  0
  6 53  1  0
 21 53  1  0
 23 54  2  0
 55 57  2  0
 57 47  1  1
 56 57  2  0
 24 57  1  1
  2 58  1  6
  2 59  1  0
  7 60  1  1
  8 61  1  1
  8 62  1  0
  9 63  1  6
 10 64  1  6
 10 65  1  0
 13 66  1  6
 15 67  1  6
 15 68  1  0
 16 69  1  1
 16 70  1  0
 18 71  1  0
 19 72  1  0
 20 73  1  0
 21 74  1  1
 21 75  1  0
 21 76  1  0
 22 77  1  1
 22 78  1  0
 22 79  1  0
 25 80  1  1
 25 81  1  0
 26 82  1  6
 26 83  1  0
 27 84  1  1
 27 85  1  0
 27 86  1  0
 28 87  1  1
 29 88  1  0
 30 89  1  0
 31 90  1  6
 31 91  1  0
 32 92  1  1
 32 93  1  0
 33 94  1  1
 33 95  1  0
 34 96  1  6
 34 97  1  0
 36 98  1  1
 36 99  1  0
 37100  1  1
 37101  1  0
 43102  1  0
 44103  1  0
 47104  1  0
M  END
