7XPO_UPG_B_402
     RDKit          3D

 60 62  0  0  0  0  0  0  0  0999 V2000
   12.1939    3.8610   -6.2759 N   0  0  0  0  0  4  0  0  0  0  0  0
   11.1020    3.3579   -6.9494 C   0  0  0  0  0  0  0  0  0  0  0  0
   10.5013    2.2086   -6.5302 N   0  0  0  0  0  4  0  0  0  0  0  0
   10.9738    1.5251   -5.4555 C   0  0  0  0  0  0  0  0  0  0  0  0
   12.0879    2.0014   -4.7614 C   0  0  0  0  0  0  0  0  0  0  0  0
   12.6807    3.1865   -5.1869 C   0  0  0  0  0  0  0  0  0  0  0  0
   10.6402    3.9548   -7.9596 O   0  0  0  0  0  0  0  0  0  0  0  0
   10.4042    0.4620   -5.0873 O   0  0  0  0  0  0  0  0  0  0  0  0
   12.7950    5.1535   -6.6813 C   0  0  1  0  0  0  0  0  0  0  0  0
   12.1872    5.6542   -7.9856 C   0  0  2  0  0  0  0  0  0  0  0  0
   12.8334    5.1005   -9.1036 O   0  0  0  0  0  0  0  0  0  0  0  0
   12.3975    7.1468   -7.8812 C   0  0  1  0  0  0  0  0  0  0  0  0
   12.4085    7.3827   -6.3579 C   0  0  2  0  0  0  0  0  0  0  0  0
   12.5966    6.1473   -5.6986 O   0  0  0  0  0  0  0  0  0  0  0  0
   13.6116    7.5566   -8.4777 O   0  0  0  0  0  0  0  0  0  0  0  0
   11.1049    8.0407   -5.8756 C   0  0  0  0  0  0  0  0  0  0  0  0
   10.2661    7.0729   -5.2899 O   0  0  0  0  0  0  0  0  0  0  0  0
   10.4923    5.5669   -6.0748 P   0  0  2  0  0  5  0  0  0  0  0  0
   10.2267    5.7355   -7.5581 O   0  0  0  0  0  0  0  0  0  0  0  0
    9.4435    4.3745   -5.4688 O   0  0  0  0  0  0  0  0  0  0  0  0
   12.0868    5.0250   -5.8270 O   0  0  0  0  0  0  0  0  0  0  0  0
   12.5586    5.4548   -4.2449 P   0  0  2  0  0  5  0  0  0  0  0  0
   11.6328    6.4954   -3.6507 O   0  0  0  0  0  0  0  0  0  0  0  0
   14.1341    6.0707   -4.2732 O   0  0  0  0  0  0  0  0  0  0  0  0
   12.5413    4.0645   -3.2502 O   0  0  0  0  0  0  0  0  0  0  0  0
   11.7415    3.0678   -3.8552 C   0  0  2  0  0  0  0  0  0  0  0  0
   12.0965    2.9607   -5.3599 C   0  0  1  0  0  0  0  0  0  0  0  0
   10.9440    2.3035   -6.1638 C   0  0  2  0  0  0  0  0  0  0  0  0
   10.0486    1.4510   -5.2461 C   0  0  1  0  0  0  0  0  0  0  0  0
    9.5113    2.3248   -4.0666 C   0  0  1  0  0  0  0  0  0  0  0  0
    9.1851    1.4845   -2.8202 C   0  0  0  0  0  0  0  0  0  0  0  0
   12.3476    4.2338   -5.8985 O   0  0  0  0  0  0  0  0  0  0  0  0
   11.4607    1.4999   -7.1921 O   0  0  0  0  0  0  0  0  0  0  0  0
    8.9899    0.8640   -5.9664 O   0  0  0  0  0  0  0  0  0  0  0  0
   10.3711    3.4079   -3.7154 O   0  0  0  0  0  0  0  0  0  0  0  0
   10.2163    1.5729   -1.8741 O   0  0  0  0  0  0  0  0  0  0  0  0
    9.6632    1.8471   -7.0410 H   0  0  0  0  0  0  0  0  0  0  0  0
   12.4761    1.4677   -3.9025 H   0  0  0  0  0  0  0  0  0  0  0  0
   13.5327    3.5641   -4.6219 H   0  0  0  0  0  0  0  0  0  0  0  0
   13.8970    5.0307   -6.8038 H   0  0  0  0  0  0  0  0  0  0  0  0
   11.0933    5.4223   -8.0048 H   0  0  0  0  0  0  0  0  0  0  0  0
   12.2560    5.2990   -9.8826 H   0  0  0  0  0  0  0  0  0  0  0  0
   11.5659    7.6836   -8.3914 H   0  0  0  0  0  0  0  0  0  0  0  0
   13.2472    8.0596   -6.0815 H   0  0  0  0  0  0  0  0  0  0  0  0
   14.3595    7.1027   -8.0064 H   0  0  0  0  0  0  0  0  0  0  0  0
   10.6252    8.4996   -6.7677 H   0  0  0  0  0  0  0  0  0  0  0  0
   11.3507    8.8335   -5.1349 H   0  0  0  0  0  0  0  0  0  0  0  0
    8.6134    4.4662   -6.0009 H   0  0  0  0  0  0  0  0  0  0  0  0
   14.3723    6.1906   -3.3187 H   0  0  0  0  0  0  0  0  0  0  0  0
   11.9554    2.0710   -3.4010 H   0  0  0  0  0  0  0  0  0  0  0  0
   13.0095    2.3270   -5.4510 H   0  0  0  0  0  0  0  0  0  0  0  0
   10.3040    3.1034   -6.6062 H   0  0  0  0  0  0  0  0  0  0  0  0
   10.6725    0.6229   -4.8416 H   0  0  0  0  0  0  0  0  0  0  0  0
    8.5579    2.7936   -4.3976 H   0  0  0  0  0  0  0  0  0  0  0  0
    8.2437    1.8401   -2.3531 H   0  0  0  0  0  0  0  0  0  0  0  0
    9.0284    0.4209   -3.1114 H   0  0  0  0  0  0  0  0  0  0  0  0
   13.2963    4.4529   -5.7093 H   0  0  0  0  0  0  0  0  0  0  0  0
   11.8282    2.1149   -7.8793 H   0  0  0  0  0  0  0  0  0  0  0  0
    8.4712    1.5939   -6.3961 H   0  0  0  0  0  0  0  0  0  0  0  0
   10.9592    1.0060   -2.2097 H   0  0  0  0  0  0  0  0  0  0  0  0
  1  2  4  0
  2  3  4  0
  3  4  4  0
  4  5  4  0
  1  6  4  0
  5  6  4  0
  2  7  2  0
  4  8  2  0
  9  1  1  0
  9 10  1  0
 10 11  1  0
 10 12  1  0
 12 13  1  0
  9 14  1  0
 13 14  1  0
 12 15  1  0
 13 16  1  0
 16 17  1  0
 18 17  1  1
 18 19  2  0
 18 20  1  0
 18 21  1  0
 22 21  1  6
 22 23  2  0
 22 24  1  0
 22 25  1  0
 26 25  1  0
 26 27  1  0
 27 28  1  0
 28 29  1  0
 29 30  1  0
 30 31  1  0
 27 32  1  0
 28 33  1  0
 29 34  1  0
 26 35  1  0
 30 35  1  0
 31 36  1  0
  3 37  1  0
  5 38  1  0
  6 39  1  0
  9 40  1  6
 10 41  1  1
 11 42  1  0
 12 43  1  6
 13 44  1  6
 15 45  1  0
 16 46  1  0
 16 47  1  0
 20 48  1  0
 24 49  1  0
 26 50  1  1
 27 51  1  1
 28 52  1  6
 29 53  1  1
 30 54  1  6
 31 55  1  0
 31 56  1  0
 32 57  1  0
 33 58  1  0
 34 59  1  0
 36 60  1  0
M  CHG  2   1   1   3   1
M  END
