7NU0_DCL_A_1004
     RDKit          3D

  8  7  0  0  0  0  0  0  0  0999 V2000
   30.7183   14.3647  -13.6936 N   0  0  0  0  0  0  0  0  0  0  0  0
   31.4805   13.1498  -13.5814 C   0  0  2  0  0  0  0  0  0  0  0  0
   31.5975   12.5933  -14.9864 C   0  0  0  0  0  0  0  0  0  0  0  0
   30.7012   12.1809  -12.7286 C   0  0  0  0  0  0  0  0  0  0  0  0
   30.4929   12.6364  -11.3239 C   0  0  1  0  0  0  0  0  0  0  0  0
   29.7606   11.6768  -10.4568 C   0  0  0  0  0  0  0  0  0  0  0  0
   31.8821   12.8299  -10.7181 C   0  0  0  0  0  0  0  0  0  0  0  0
   30.3213   12.2644  -15.4414 O   0  0  0  0  0  0  0  0  0  0  0  0
  2  1  1  6
  2  3  1  0
  2  4  1  0
  4  5  1  0
  5  6  1  1
  5  7  1  0
  3  8  1  0
M  END
$$$$
