
     RDKit          3D

 28 30  0  0  0  0  0  0  0  0999 V2000
  -38.4627   11.3345    1.5175 C   0  0  0  0  0  0  0  0  0  0  0  0
  -39.4616   11.2715    0.3609 C   0  0  0  0  0  0  0  0  0  0  0  0
  -40.8480   11.7438    0.8067 C   0  0  0  0  0  0  0  0  0  0  0  0
  -46.3883   10.1010    1.4967 C   0  0  0  0  0  0  0  0  0  0  0  0
  -47.2835   10.5928    2.4535 C   0  0  0  0  0  0  0  0  0  0  0  0
  -46.8903   11.5000    3.4228 C   0  0  0  0  0  0  0  0  0  0  0  0
  -45.5507   11.9392    3.4329 C   0  0  0  0  0  0  0  0  0  0  0  0
  -44.6653   11.4439    2.4404 C   0  0  0  0  0  0  0  0  0  0  0  0
  -45.1678   12.8780    4.4319 C   0  0  0  0  0  0  0  0  0  0  0  0
  -46.1322   13.3187    5.3546 C   0  0  0  0  0  0  0  0  0  0  0  0
  -47.4226   12.8350    5.2316 C   0  0  0  0  0  0  0  0  0  0  0  0
  -45.8021   14.3072    6.4077 C   0  0  0  0  0  0  0  0  0  0  0  0
  -46.8403   15.6671    8.1591 C   0  0  0  0  0  0  0  0  0  0  0  0
  -41.6391   10.4873    5.7581 C   0  0  0  0  0  0  0  0  0  0  0  0
  -40.4154   10.8591    5.2078 C   0  0  0  0  0  0  0  0  0  0  0  0
  -40.3217   12.0302    4.4617 C   0  0  0  0  0  0  0  0  0  0  0  0
  -41.4523   12.8279    4.2696 C   0  0  0  0  0  0  0  0  0  0  0  0
  -44.7633   14.9560    6.3275 O   0  0  0  0  0  0  0  0  0  0  0  0
  -46.6925   14.4149    7.4583 N   0  0  0  0  0  0  0  0  0  0  0  0
  -47.8086   11.9313    4.3034 N   0  0  0  0  0  0  0  0  0  0  0  0
  -43.8094   13.3057    4.5561 N   0  0  0  0  0  0  0  0  0  0  0  0
  -42.6875   12.4812    4.8369 C   0  0  0  0  0  0  0  0  0  0  0  0
  -42.7682   11.2901    5.5679 C   0  0  0  0  0  0  0  0  0  0  0  0
  -45.0496   10.4921    1.4922 C   0  0  0  0  0  0  0  0  0  0  0  0
  -44.2165   10.0195    0.4781 N   0  0  0  0  0  0  0  0  0  0  0  0
  -43.0882   10.8160    0.0002 C   0  0  0  0  0  0  0  0  0  0  0  0
  -41.8714   10.6098    0.9041 C   0  0  0  0  0  0  0  0  0  0  0  0
  -37.0837   10.8568    1.0929 C   0  0  0  0  0  0  0  0  0  0  0  0
  1  2  1  0
  2  3  1  0
  4  5  4  0
  5  6  4  0
  6  7  4  0
  7  8  4  0
  7  9  4  0
  9 10  4  0
 10 11  4  0
 10 12  1  0
 14 15  4  0
 15 16  4  0
 16 17  4  0
 12 18  2  0
 12 19  1  0
 13 19  1  0
  6 20  4  0
 11 20  4  0
  9 21  1  0
 21 22  1  0
 17 22  4  0
 14 23  4  0
 22 23  4  0
  4 24  4  0
  8 24  4  0
 24 25  1  0
 25 26  1  0
 26 27  1  0
  3 27  1  0
  1 28  1  0
M  END
