7R59_I5F_A_602
     RDKit          3D

 13 15  0  0  0  0  0  0  0  0999 V2000
    2.2363    3.9476   10.5149 C   0  0  0  0  0  0  0  0  0  0  0  0
    1.5639    4.5836   11.5133 C   0  0  0  0  0  0  0  0  0  0  0  0
    2.0628    4.8114   12.7881 C   0  0  0  0  0  0  0  0  0  0  0  0
    0.4032    4.2871    9.2201 C   0  0  0  0  0  0  0  0  0  0  0  0
    1.8793    3.2635    8.1017 C   0  0  0  0  0  0  0  0  0  0  0  0
   -0.0957    4.0744    7.9891 N   0  0  0  0  0  0  0  0  0  0  0  0
    0.8483    3.4255    7.2901 N   0  0  0  0  0  0  0  0  0  0  0  0
    3.5362    3.5145   10.8790 C   0  0  0  0  0  0  0  0  0  0  0  0
    1.6474    3.7963    9.3488 N   0  0  0  0  0  0  0  0  0  0  0  0
    3.8221    4.6132   14.3984 O   0  0  0  0  0  0  0  0  0  0  0  0
    3.3404    4.3813   13.1331 C   0  0  0  0  0  0  0  0  0  0  0  0
    4.0367    3.7353   12.1354 C   0  0  0  0  0  0  0  0  0  0  0  0
   -0.0081    5.0310   10.8532 S   0  0  0  0  0  0  0  0  0  0  0  0
  1  2  1  0
  2  3  2  0
  4  6  2  0
  5  7  2  0
  6  7  1  0
  1  8  2  0
  5  9  1  0
  4  9  1  0
  1  9  1  0
  3 11  1  0
 10 11  1  0
  8 12  1  0
 11 12  2  0
  4 13  1  0
  2 13  1  0
M  END
$$$$
