7AS1_21G_A_501
     RDKit          3D

 29 33  0  0  0  0  0  0  0  0999 V2000
   -3.5829    9.8959   -0.0877 C   0  0  0  0  0  0  0  0  0  0  0  0
   -3.3460    8.8185    0.7399 C   0  0  0  0  0  0  0  0  0  0  0  0
   -4.3176    7.9186    1.0823 C   0  0  0  0  0  0  0  0  0  0  0  0
   -5.8686    9.1418   -0.2395 C   0  0  0  0  0  0  0  0  0  0  0  0
   -4.8643   10.0412   -0.5719 C   0  0  0  0  0  0  0  0  0  0  0  0
   -5.4246   10.9857   -1.4024 C   0  0  0  0  0  0  0  0  0  0  0  0
   -5.5514    8.1024    0.5853 N   0  0  0  0  0  0  0  0  0  0  0  0
   -6.7462   10.6398   -1.5535 C   0  0  0  0  0  0  0  0  0  0  0  0
   -7.0082    9.5282   -0.8508 N   0  0  0  0  0  0  0  0  0  0  0  0
   -4.7508   12.1302   -2.0056 C   0  0  0  0  0  0  0  0  0  0  0  0
   -5.4311   12.9310   -2.8459 N   0  0  0  0  0  0  0  0  0  0  0  0
   -4.8234   14.0032   -3.4197 C   0  0  0  0  0  0  0  0  0  0  0  0
   -3.4788   14.2196   -3.0917 C   0  0  0  0  0  0  0  0  0  0  0  0
   -2.7639   13.4303   -2.2467 C   0  0  0  0  0  0  0  0  0  0  0  0
   -3.4694   12.3688   -1.7167 N   0  0  0  0  0  0  0  0  0  0  0  0
   -1.4339   13.5542   -1.8371 N   0  0  0  0  0  0  0  0  0  0  0  0
   -0.5870   12.8723   -0.9466 C   0  0  2  0  0  0  0  0  0  0  0  0
    0.1905   13.6529    0.0761 C   0  0  2  0  0  0  0  0  0  0  0  0
    1.0123   12.5711    0.8150 C   0  0  2  0  0  0  0  0  0  0  0  0
    2.2230   12.3552   -0.0617 C   0  0  0  0  0  0  0  0  0  0  0  0
    1.7317   11.9235   -1.4323 C   0  0  0  0  0  0  0  0  0  0  0  0
    0.2355   11.7412   -1.4487 C   0  0  1  0  0  0  0  0  0  0  0  0
    0.0265   10.5992   -0.4073 C   0  0  0  0  0  0  0  0  0  0  0  0
    0.2583   11.2732    0.9245 C   0  0  0  0  0  0  0  0  0  0  0  0
   -0.7379   14.2885    1.0745 C   0  0  0  0  0  0  0  0  0  0  0  0
   -0.5838   15.6314    1.3612 O   0  0  0  0  0  0  0  0  0  0  0  0
   -1.6404   13.6642    1.6570 O   0  0  0  0  0  0  0  0  0  0  0  0
   -2.9055   15.2725   -3.6796 F   0  0  0  0  0  0  0  0  0  0  0  0
   -2.0854    8.6575    1.2288 F   0  0  0  0  0  0  0  0  0  0  0  0
  1  2  2  0
  2  3  1  0
  4  5  2  0
  1  5  1  0
  5  6  1  0
  4  7  1  0
  3  7  2  0
  6  8  2  0
  4  9  1  0
  8  9  1  0
  6 10  1  0
 10 11  2  0
 11 12  1  0
 12 13  2  0
 13 14  1  0
 10 15  1  0
 14 15  2  0
 14 16  1  0
 17 16  1  6
 17 18  1  0
 18 19  1  0
 19 20  1  6
 21 20  1  6
 17 22  1  0
 22 21  1  1
 23 22  1  1
 24 23  1  1
 19 24  1  0
 18 25  1  1
 25 26  1  0
 25 27  2  0
 13 28  1  0
  2 29  1  0
M  END
$$$$
