
     RDKit          3D

 35 39  0  0  0  0  0  0  0  0999 V2000
  -82.5516  -20.4269   85.0537 N   0  0  0  0  0  0  0  0  0  0  0  0
  -78.6106  -21.1074   89.9303 N   0  0  0  0  0  0  0  0  0  0  0  0
  -84.9329  -19.7276   87.8127 C   0  0  0  0  0  0  0  0  0  0  0  0
  -85.6585  -18.5764   88.4129 C   0  0  0  0  0  0  0  0  0  0  0  0
  -87.2965  -18.0404   90.2292 C   0  0  0  0  0  0  0  0  0  0  0  0
  -87.6509  -16.8238   89.6311 C   0  0  0  0  0  0  0  0  0  0  0  0
  -88.4799  -15.9065   90.2871 C   0  0  0  0  0  0  0  0  0  0  0  0
  -88.9632  -16.2103   91.5578 C   0  0  0  0  0  0  0  0  0  0  0  0
  -84.1137  -19.5652   86.6882 C   0  0  0  0  0  0  0  0  0  0  0  0
  -81.2037  -20.0334   85.1619 C   0  0  0  0  0  0  0  0  0  0  0  0
  -78.5108  -20.2222   87.6516 C   0  0  0  0  0  0  0  0  0  0  0  0
  -77.2903  -20.8662   90.0536 C   0  0  0  0  0  0  0  0  0  0  0  0
  -79.1813  -20.7810   88.7407 C   0  0  0  0  0  0  0  0  0  0  0  0
  -79.2292  -18.9867   84.3540 C   0  0  0  0  0  0  0  0  0  0  0  0
  -80.8305  -18.8669   82.8407 C   0  0  0  0  0  0  0  0  0  0  0  0
  -86.4624  -18.9045   89.4890 N   0  0  0  0  0  0  0  0  0  0  0  0
  -82.8668  -23.1509   86.2010 C   0  0  0  0  0  0  0  0  0  0  0  0
  -88.7373  -14.7638   89.5797 O   0  0  0  0  0  0  0  0  0  0  0  0
  -83.5735  -21.9310   86.7297 C   0  0  0  0  0  0  0  0  0  0  0  0
  -88.6185  -17.4213   92.1606 C   0  0  0  0  0  0  0  0  0  0  0  0
  -87.7905  -18.3327   91.4995 C   0  0  0  0  0  0  0  0  0  0  0  0
  -83.4258  -20.6592   86.1378 C   0  0  0  0  0  0  0  0  0  0  0  0
  -79.2024  -19.8972   86.3941 C   0  0  0  0  0  0  0  0  0  0  0  0
  -77.1374  -19.9941   87.8400 C   0  0  0  0  0  0  0  0  0  0  0  0
  -76.5177  -20.3164   89.0473 C   0  0  0  0  0  0  0  0  0  0  0  0
  -84.4058  -22.0810   87.8531 C   0  0  0  0  0  0  0  0  0  0  0  0
  -80.5467  -19.3440   84.1371 C   0  0  0  0  0  0  0  0  0  0  0  0
  -77.5246  -17.7677   82.9625 C   0  0  0  0  0  0  0  0  0  0  0  0
  -85.0910  -20.9898   88.3848 C   0  0  0  0  0  0  0  0  0  0  0  0
  -88.5970  -13.5320   90.2771 C   0  0  0  0  0  0  0  0  0  0  0  0
  -80.4919  -20.2921   86.2887 N   0  0  0  0  0  0  0  0  0  0  0  0
  -78.5026  -19.2309   85.4557 N   0  0  0  0  0  0  0  0  0  0  0  0
  -79.7921  -18.2397   82.2783 N   0  0  0  0  0  0  0  0  0  0  0  0
  -78.8243  -18.3358   83.2196 N   0  0  0  0  0  0  0  0  0  0  0  0
  -85.5160  -17.4724   87.9028 O   0  0  0  0  0  0  0  0  0  0  0  0
  3  4  1  0
  5  6  4  0
  6  7  4  0
  7  8  4  0
  3  9  4  0
  1 10  1  0
  2 12  4  0
 11 13  4  0
  2 13  4  0
  4 16  1  0
  5 16  1  0
  7 18  1  0
 17 19  1  0
  8 20  4  0
  5 21  4  0
 20 21  4  0
  1 22  1  0
 19 22  4  0
  9 22  4  0
 11 23  1  0
 11 24  4  0
 24 25  4  0
 12 25  4  0
 19 26  4  0
 15 27  4  0
 14 27  4  0
 10 27  4  0
 26 29  4  0
  3 29  4  0
 18 30  1  0
 10 31  4  0
 23 31  4  0
 14 32  4  0
 23 32  4  0
 15 33  4  0
 33 34  4  0
 28 34  1  0
 14 34  4  0
  4 35  2  0
M  END
