1Z95_198_A_501
     RDKit          3D

 29 30  0  0  0  0  0  0  0  0999 V2000
   28.8842    1.1238    9.2036 C   0  0  0  0  0  0  0  0  0  0  0  0
   28.6282    0.8544   10.5390 C   0  0  0  0  0  0  0  0  0  0  0  0
   29.5562    0.1794   11.3045 C   0  0  0  0  0  0  0  0  0  0  0  0
   29.3353   -0.0949   12.5989 F   0  0  0  0  0  0  0  0  0  0  0  0
   30.7402   -0.2220   10.7198 C   0  0  0  0  0  0  0  0  0  0  0  0
   30.9690    0.0582    9.3924 C   0  0  0  0  0  0  0  0  0  0  0  0
   30.0512    0.7370    8.5972 C   0  0  0  0  0  0  0  0  0  0  0  0
   30.4493    1.0333    6.9374 S   0  0  1  0  0  6  0  0  0  0  0  0
   29.7765    2.3141    6.5348 O   0  0  0  0  0  0  0  0  0  0  0  0
   31.9511    1.2173    6.8710 O   0  0  0  0  0  0  0  0  0  0  0  0
   29.9496   -0.2904    5.8686 C   0  0  0  0  0  0  0  0  0  0  0  0
   29.4707    0.2518    4.5504 C   0  0  1  0  0  0  0  0  0  0  0  0
   30.5644    0.8067    3.8777 O   0  0  0  0  0  0  0  0  0  0  0  0
   28.9147   -0.8698    3.6876 C   0  0  0  0  0  0  0  0  0  0  0  0
   28.4160    1.2645    4.6362 C   0  0  0  0  0  0  0  0  0  0  0  0
   27.3700    1.1631    5.3309 O   0  0  0  0  0  0  0  0  0  0  0  0
   28.5825    2.4664    3.8720 N   0  0  0  0  0  0  0  0  0  0  0  0
   27.6652    3.5512    3.9480 C   0  0  0  0  0  0  0  0  0  0  0  0
   26.4862    3.3376    4.6193 C   0  0  0  0  0  0  0  0  0  0  0  0
   27.9278    4.7856    3.3751 C   0  0  0  0  0  0  0  0  0  0  0  0
   26.9618    5.7833    3.5067 C   0  0  0  0  0  0  0  0  0  0  0  0
   25.7806    5.5671    4.1801 C   0  0  0  0  0  0  0  0  0  0  0  0
   24.7896    6.6254    4.3027 C   0  0  0  0  0  0  0  0  0  0  0  0
   23.9778    7.4670    4.3917 N   0  0  0  0  0  0  0  0  0  0  0  0
   25.5346    4.3319    4.7449 C   0  0  0  0  0  0  0  0  0  0  0  0
   24.2529    4.1523    5.4559 C   0  0  2  0  0  0  0  0  0  0  0  0
   23.2616    4.7029    4.6388 F   0  0  0  0  0  0  0  0  0  0  0  0
   24.2236    4.7671    6.6755 F   0  0  0  0  0  0  0  0  0  0  0  0
   23.9968    2.8016    5.5738 F   0  0  0  0  0  0  0  0  0  0  0  0
  1  2  2  0
  2  3  1  0
  3  4  1  0
  3  5  2  0
  5  6  1  0
  1  7  1  0
  6  7  2  0
  8  7  1  1
  8  9  2  0
  8 10  2  0
 11  8  1  6
 11 12  1  0
 12 13  1  6
 14 12  1  1
 12 15  1  0
 15 16  2  0
 15 17  1  0
 17 18  1  0
 18 19  2  0
 18 20  1  0
 20 21  2  0
 21 22  1  0
 22 23  1  0
 23 24  3  0
 19 25  1  0
 22 25  2  0
 25 26  1  0
 26 27  1  6
 26 28  1  0
 26 29  1  0
M  END
$$$$
