7BA0_T5H_A_201
     RDKit          3D

110115  0  0  0  0  0  0  0  0999 V2000
   -1.7550    3.4569   -4.7367 C   0  0  0  0  0  0  0  0  0  0  0  0
   -2.9782    3.3938   -3.8211 C   0  0  0  0  0  0  0  0  0  0  0  0
   -2.5620    3.6124   -2.3670 C   0  0  0  0  0  0  0  0  0  0  0  0
   -1.5466    2.5587   -1.9270 C   0  0  0  0  0  0  0  0  0  0  0  0
   -0.3271    2.5087   -2.8597 C   0  0  0  0  0  0  0  0  0  0  0  0
   -0.6857    2.4031   -4.3660 C   0  0  1  0  0  0  0  0  0  0  0  0
   -1.0067    0.9675   -4.9391 C   0  0  2  0  0  0  0  0  0  0  0  0
   -2.1943    0.2329   -4.3440 C   0  0  0  0  0  0  0  0  0  0  0  0
   -2.2178   -0.0614   -3.1215 O   0  0  0  0  0  0  0  0  0  0  0  0
   -3.2478   -0.2499   -5.1970 N   0  0  0  0  0  0  0  0  0  0  0  0
   -2.9483   -1.1763   -6.2940 C   0  0  0  0  0  0  0  0  0  0  0  0
   -3.2480   -0.5159   -7.6515 C   0  0  0  0  0  0  0  0  0  0  0  0
   -4.2671    0.6352   -7.5465 C   0  0  0  0  0  0  0  0  0  0  0  0
   -5.3045    0.3769   -6.4455 C   0  0  0  0  0  0  0  0  0  0  0  0
   -4.6311    0.2423   -5.0503 C   0  0  1  0  0  0  0  0  0  0  0  0
   -5.4293   -0.6741   -4.1563 C   0  0  0  0  0  0  0  0  0  0  0  0
   -6.6884   -0.5849   -4.1237 O   0  0  0  0  0  0  0  0  0  0  0  0
   -4.7655   -1.6069   -3.3559 O   0  0  0  0  0  0  0  0  0  0  0  0
   -5.4058   -2.6812   -2.6616 C   0  0  2  0  0  0  0  0  0  0  0  0
   -5.6744   -2.3058   -1.1921 C   0  0  0  0  0  0  0  0  0  0  0  0
   -4.4651   -1.6257   -0.5389 C   0  0  0  0  0  0  0  0  0  0  0  0
   -4.5219   -0.1313   -0.7252 C   0  0  0  0  0  0  0  0  0  0  0  0
   -3.5496    0.5248   -1.4939 C   0  0  0  0  0  0  0  0  0  0  0  0
   -5.5417    0.6151   -0.1213 C   0  0  0  0  0  0  0  0  0  0  0  0
   -5.6085    1.9962   -0.3054 C   0  0  0  0  0  0  0  0  0  0  0  0
   -4.6476    2.6575   -1.0954 C   0  0  0  0  0  0  0  0  0  0  0  0
   -4.6898    4.0442   -1.3132 O   0  0  0  0  0  0  0  0  0  0  0  0
   -4.0084    4.7190   -2.3667 C   0  0  0  0  0  0  0  0  0  0  0  0
   -3.6140    1.9178   -1.6945 C   0  0  0  0  0  0  0  0  0  0  0  0
   -2.6739    2.5995   -2.4844 O   0  0  0  0  0  0  0  0  0  0  0  0
   -2.7232    3.9945   -2.7692 C   0  0  0  0  0  0  0  0  0  0  0  0
   -4.5008   -3.8874   -2.7368 C   0  0  0  0  0  0  0  0  0  0  0  0
   -3.1318   -3.7584   -2.4510 C   0  0  0  0  0  0  0  0  0  0  0  0
   -4.9980   -5.1379   -3.1395 C   0  0  0  0  0  0  0  0  0  0  0  0
   -4.1278   -6.2232   -3.3015 C   0  0  0  0  0  0  0  0  0  0  0  0
   -2.7604   -6.0710   -3.0686 C   0  0  0  0  0  0  0  0  0  0  0  0
   -2.2597   -4.8317   -2.6397 C   0  0  0  0  0  0  0  0  0  0  0  0
   -0.9017   -4.6217   -2.4004 O   0  0  0  0  0  0  0  0  0  0  0  0
    0.1488   -5.2506   -3.1358 C   0  0  0  0  0  0  0  0  0  0  0  0
    1.3594   -4.3110   -3.1062 C   0  0  1  0  0  0  0  0  0  0  0  0
    1.8576   -4.2390   -1.7972 O   0  0  0  0  0  0  0  0  0  0  0  0
    2.4967   -4.7406   -4.0585 C   0  0  1  0  0  0  0  0  0  0  0  0
    2.0130   -4.8893   -5.3711 O   0  0  0  0  0  0  0  0  0  0  0  0
    3.6618   -3.7204   -4.0650 C   0  0  0  0  0  0  0  0  0  0  0  0
    3.4612   -2.6503   -4.9985 O   0  0  0  0  0  0  0  0  0  0  0  0
    2.4364   -1.6890   -4.9502 C   0  0  0  0  0  0  0  0  0  0  0  0
    2.0681   -1.0292   -3.7578 C   0  0  0  0  0  0  0  0  0  0  0  0
    2.8322   -1.2306   -2.5970 O   0  0  0  0  0  0  0  0  0  0  0  0
    3.9481   -2.1083   -2.5061 C   0  0  0  0  0  0  0  0  0  0  0  0
    0.9383   -0.1867   -3.7559 C   0  0  0  0  0  0  0  0  0  0  0  0
    0.2230    0.0677   -4.9380 C   0  0  0  0  0  0  0  0  0  0  0  0
    0.6722   -0.5093   -6.1364 C   0  0  0  0  0  0  0  0  0  0  0  0
    1.7675   -1.3913   -6.1460 C   0  0  0  0  0  0  0  0  0  0  0  0
    2.2120   -2.0048   -7.3276 O   0  0  0  0  0  0  0  0  0  0  0  0
    1.7168   -1.7051   -8.6284 C   0  0  0  0  0  0  0  0  0  0  0  0
   -2.0751    3.3399   -5.7962 H   0  0  0  0  0  0  0  0  0  0  0  0
   -1.3070    4.4759   -4.6671 H   0  0  0  0  0  0  0  0  0  0  0  0
   -3.4861    2.4134   -3.9320 H   0  0  0  0  0  0  0  0  0  0  0  0
   -3.7010    4.1859   -4.1216 H   0  0  0  0  0  0  0  0  0  0  0  0
   -3.4593    3.5653   -1.7145 H   0  0  0  0  0  0  0  0  0  0  0  0
   -2.1198    4.6280   -2.2598 H   0  0  0  0  0  0  0  0  0  0  0  0
   -2.0422    1.5729   -1.8752 H   0  0  0  0  0  0  0  0  0  0  0  0
   -1.2077    2.8038   -0.8979 H   0  0  0  0  0  0  0  0  0  0  0  0
    0.2549    3.4463   -2.7086 H   0  0  0  0  0  0  0  0  0  0  0  0
    0.3467    1.6881   -2.5453 H   0  0  0  0  0  0  0  0  0  0  0  0
    0.2235    2.7559   -4.9032 H   0  0  0  0  0  0  0  0  0  0  0  0
   -1.2832    1.1214   -6.0031 H   0  0  0  0  0  0  0  0  0  0  0  0
   -1.8937   -1.5180   -6.2556 H   0  0  0  0  0  0  0  0  0  0  0  0
   -3.5836   -2.0805   -6.1779 H   0  0  0  0  0  0  0  0  0  0  0  0
   -2.3081   -0.1221   -8.0903 H   0  0  0  0  0  0  0  0  0  0  0  0
   -3.6382   -1.2873   -8.3479 H   0  0  0  0  0  0  0  0  0  0  0  0
   -4.7801    0.7703   -8.5235 H   0  0  0  0  0  0  0  0  0  0  0  0
   -3.7304    1.5793   -7.3192 H   0  0  0  0  0  0  0  0  0  0  0  0
   -5.8672   -0.5496   -6.7046 H   0  0  0  0  0  0  0  0  0  0  0  0
   -6.0350    1.2156   -6.4303 H   0  0  0  0  0  0  0  0  0  0  0  0
   -4.6176    1.2459   -4.5784 H   0  0  0  0  0  0  0  0  0  0  0  0
   -6.3722   -2.9300   -3.1571 H   0  0  0  0  0  0  0  0  0  0  0  0
   -5.9384   -3.2176   -0.6122 H   0  0  0  0  0  0  0  0  0  0  0  0
   -6.5395   -1.6045   -1.1540 H   0  0  0  0  0  0  0  0  0  0  0  0
   -4.4482   -1.8562    0.5471 H   0  0  0  0  0  0  0  0  0  0  0  0
   -3.5239   -2.0202   -0.9835 H   0  0  0  0  0  0  0  0  0  0  0  0
   -2.7572   -0.0581   -1.9407 H   0  0  0  0  0  0  0  0  0  0  0  0
   -6.2882    0.1215    0.4901 H   0  0  0  0  0  0  0  0  0  0  0  0
   -6.4155    2.5416    0.1651 H   0  0  0  0  0  0  0  0  0  0  0  0
   -4.3865    4.3784   -3.3509 H   0  0  0  0  0  0  0  0  0  0  0  0
   -2.9160    4.5367   -2.2931 H   0  0  0  0  0  0  0  0  0  0  0  0
   -4.1863    5.8094   -2.2768 H   0  0  0  0  0  0  0  0  0  0  0  0
   -2.6614    4.5819   -1.8291 H   0  0  0  0  0  0  0  0  0  0  0  0
   -1.8602    4.2662   -3.4105 H   0  0  0  0  0  0  0  0  0  0  0  0
   -3.6588    4.2375   -3.3151 H   0  0  0  0  0  0  0  0  0  0  0  0
   -2.7287   -2.8050   -2.1308 H   0  0  0  0  0  0  0  0  0  0  0  0
   -6.0523   -5.2733   -3.3451 H   0  0  0  0  0  0  0  0  0  0  0  0
   -4.5132   -7.1811   -3.6231 H   0  0  0  0  0  0  0  0  0  0  0  0
   -2.0949   -6.9131   -3.2148 H   0  0  0  0  0  0  0  0  0  0  0  0
   -0.1799   -5.4090   -4.1841 H   0  0  0  0  0  0  0  0  0  0  0  0
    0.3985   -6.2314   -2.6760 H   0  0  0  0  0  0  0  0  0  0  0  0
    0.9907   -3.3173   -3.4272 H   0  0  0  0  0  0  0  0  0  0  0  0
    1.3126   -3.5748   -1.3042 H   0  0  0  0  0  0  0  0  0  0  0  0
    2.9082   -5.7091   -3.6767 H   0  0  0  0  0  0  0  0  0  0  0  0
    1.8147   -5.8517   -5.5022 H   0  0  0  0  0  0  0  0  0  0  0  0
    3.8888   -3.3370   -3.0506 H   0  0  0  0  0  0  0  0  0  0  0  0
    4.5771   -4.2600   -4.3892 H   0  0  0  0  0  0  0  0  0  0  0  0
    4.3753   -2.0370   -1.4848 H   0  0  0  0  0  0  0  0  0  0  0  0
    4.7297   -1.8075   -3.2369 H   0  0  0  0  0  0  0  0  0  0  0  0
    3.6304   -3.1561   -2.6899 H   0  0  0  0  0  0  0  0  0  0  0  0
    0.6158    0.2772   -2.8376 H   0  0  0  0  0  0  0  0  0  0  0  0
    0.1489   -0.2909   -7.0580 H   0  0  0  0  0  0  0  0  0  0  0  0
    0.6353   -1.9528   -8.6931 H   0  0  0  0  0  0  0  0  0  0  0  0
    1.8813   -0.6334   -8.8653 H   0  0  0  0  0  0  0  0  0  0  0  0
    2.2606   -2.3173   -9.3761 H   0  0  0  0  0  0  0  0  0  0  0  0
  1  2  1  0
  2  3  1  0
  3  4  1  0
  4  5  1  0
  1  6  1  0
  5  6  1  0
  7  6  1  0
  7  8  1  0
  8  9  2  0
  8 10  1  0
 10 11  1  0
 11 12  1  0
 12 13  1  0
 13 14  1  0
 15 14  1  0
 10 15  1  0
 15 16  1  0
 16 17  2  0
 16 18  1  0
 18 19  1  0
 19 20  1  0
 20 21  1  0
 21 22  1  0
 22 23  4  0
 22 24  4  0
 24 25  4  0
 25 26  4  0
 26 27  1  0
 27 28  1  0
 26 29  4  0
 23 29  4  0
 29 30  1  0
 30 31  1  0
 19 32  1  0
 32 33  4  0
 32 34  4  0
 34 35  4  0
 35 36  4  0
 36 37  4  0
 33 37  4  0
 37 38  1  0
 38 39  1  0
 39 40  1  0
 40 41  1  0
 40 42  1  0
 42 43  1  0
 42 44  1  0
 44 45  1  0
 45 46  1  0
 46 47  4  0
 47 48  1  0
 48 49  1  0
 47 50  4  0
  7 51  1  0
 50 51  4  0
 51 52  4  0
 52 53  4  0
 46 53  4  0
 53 54  1  0
 54 55  1  0
  1 56  1  0
  1 57  1  0
  2 58  1  0
  2 59  1  0
  3 60  1  0
  3 61  1  0
  4 62  1  0
  4 63  1  0
  5 64  1  0
  5 65  1  0
  6 66  1  6
  7 67  1  6
 11 68  1  0
 11 69  1  0
 12 70  1  0
 12 71  1  0
 13 72  1  0
 13 73  1  0
 14 74  1  0
 14 75  1  0
 15 76  1  1
 19 77  1  6
 20 78  1  0
 20 79  1  0
 21 80  1  0
 21 81  1  0
 23 82  1  0
 24 83  1  0
 25 84  1  0
 28 85  1  0
 28 86  1  0
 28 87  1  0
 31 88  1  0
 31 89  1  0
 31 90  1  0
 33 91  1  0
 34 92  1  0
 35 93  1  0
 36 94  1  0
 39 95  1  0
 39 96  1  0
 40 97  1  6
 41 98  1  0
 42 99  1  1
 43100  1  0
 44101  1  0
 44102  1  0
 49103  1  0
 49104  1  0
 49105  1  0
 50106  1  0
 52107  1  0
 55108  1  0
 55109  1  0
 55110  1  0
M  END
