7Q2B_M6H_A_401
     RDKit          3D

 26 27  0  0  0  0  0  0  0  0999 V2000
  -33.8656  -10.8437   11.5703 C   0  0  0  0  0  0  0  0  0  0  0  0
  -32.9756  -11.1963   12.5720 C   0  0  0  0  0  0  0  0  0  0  0  0
  -33.4423  -10.7249   10.2601 C   0  0  0  0  0  0  0  0  0  0  0  0
  -31.6418  -11.4271   12.2616 C   0  0  0  0  0  0  0  0  0  0  0  0
  -32.1175  -10.9564    9.9503 C   0  0  0  0  0  0  0  0  0  0  0  0
  -28.0451  -11.9549   13.7472 C   0  0  0  0  0  0  0  0  0  0  0  0
  -27.0175  -12.1472   12.8295 C   0  0  0  0  0  0  0  0  0  0  0  0
  -29.7546  -11.5237   10.5663 C   0  0  0  0  0  0  0  0  0  0  0  0
  -28.8210  -11.7547   11.7545 C   0  0  0  0  0  0  0  0  0  0  0  0
  -31.2162  -11.3147   10.9475 C   0  0  0  0  0  0  0  0  0  0  0  0
  -29.1360  -11.7087   13.0402 N   0  0  0  0  0  0  0  0  0  0  0  0
  -27.5302  -12.0066   11.6165 N   0  0  0  0  0  0  0  0  0  0  0  0
  -34.8551  -10.6681   11.8051 H   0  0  0  0  0  0  0  0  0  0  0  0
  -33.3030  -11.2871   13.5465 H   0  0  0  0  0  0  0  0  0  0  0  0
  -34.1118  -10.4650    9.5189 H   0  0  0  0  0  0  0  0  0  0  0  0
  -30.9719  -11.6807   13.0047 H   0  0  0  0  0  0  0  0  0  0  0  0
  -31.7941  -10.8634    8.9746 H   0  0  0  0  0  0  0  0  0  0  0  0
  -28.1800  -12.8344   14.3415 H   0  0  0  0  0  0  0  0  0  0  0  0
  -27.8240  -11.1472   14.4135 H   0  0  0  0  0  0  0  0  0  0  0  0
  -26.2479  -11.4205   12.9865 H   0  0  0  0  0  0  0  0  0  0  0  0
  -26.5890  -13.1208   12.9450 H   0  0  0  0  0  0  0  0  0  0  0  0
  -29.4181  -10.6550   10.0397 H   0  0  0  0  0  0  0  0  0  0  0  0
  -29.7175  -12.4117    9.9706 H   0  0  0  0  0  0  0  0  0  0  0  0
  -29.6980  -11.7232   11.1425 H   0  0  0  0  0  0  0  0  0  0  0  0
  -29.8459  -12.4117   13.2462 H   0  0  0  0  0  0  0  0  0  0  0  0
  -27.3989  -12.8652   11.0817 H   0  0  0  0  0  0  0  0  0  0  0  0
  1  2  4  0
  1  3  4  0
  2  4  4  0
  3  5  4  0
  6  7  1  0
  8  9  1  0
  4 10  4  0
  8 10  1  0
  5 10  4  0
  6 11  1  0
  9 11  1  0
  9 12  1  0
  7 12  1  0
  1 13  1  0
  2 14  1  0
  3 15  1  0
  4 16  1  0
  5 17  1  0
  6 18  1  0
  6 19  1  0
  7 20  1  0
  7 21  1  0
  8 22  1  0
  8 23  1  0
  9 24  1  0
 11 25  1  0
 12 26  1  0
M  END
