1MEH_MOA_A_600
     RDKit          3D

 23 24  0  0  0  0  0  0  0  0999 V2000
   56.8385   46.1276    5.4290 C   0  0  0  0  0  0  0  0  0  0  0  0
   52.1702   43.5048    5.3776 C   0  0  0  0  0  0  0  0  0  0  0  0
   50.8289   43.4039    5.2457 C   0  0  0  0  0  0  0  0  0  0  0  0
   50.3085   42.0093    5.2482 C   0  0  0  0  0  0  0  0  0  0  0  0
   51.0509   41.0113    4.4523 C   0  0  0  0  0  0  0  0  0  0  0  0
   50.4946   39.6729    4.3687 C   0  0  0  0  0  0  0  0  0  0  0  0
   57.8669   41.7594    6.9347 C   0  0  0  0  0  0  0  0  0  0  0  0
   54.1173   40.9003    7.9865 C   0  0  0  0  0  0  0  0  0  0  0  0
   49.9851   44.6037    5.0614 C   0  0  0  0  0  0  0  0  0  0  0  0
   58.4797   44.6213    6.0069 C   0  0  0  0  0  0  0  0  0  0  0  0
   57.1569   44.0165    6.1486 C   0  0  0  0  0  0  0  0  0  0  0  0
   56.7928   42.7337    6.5603 C   0  0  0  0  0  0  0  0  0  0  0  0
   55.4500   42.3914    6.6137 C   0  0  0  0  0  0  0  0  0  0  0  0
   54.4441   43.2704    6.2747 C   0  0  0  0  0  0  0  0  0  0  0  0
   54.8016   44.5365    5.8684 C   0  0  0  0  0  0  0  0  0  0  0  0
   56.1446   44.8932    5.8102 C   0  0  0  0  0  0  0  0  0  0  0  0
   53.0190   42.8208    6.3577 C   0  0  0  0  0  0  0  0  0  0  0  0
   56.2704   47.2058    5.0431 O   0  0  0  0  0  0  0  0  0  0  0  0
   58.2045   45.9311    5.5561 O   0  0  0  0  0  0  0  0  0  0  0  0
   55.1800   41.0772    7.0402 O   0  0  0  0  0  0  0  0  0  0  0  0
   53.8067   45.4307    5.5249 O   0  0  0  0  0  0  0  0  0  0  0  0
   51.2872   38.7229    3.6544 O   0  0  0  0  0  0  0  0  0  0  0  0
   49.4397   39.2182    4.8179 O   0  0  0  0  0  0  0  0  0  0  0  0
  2  3  2  0
  3  4  1  0
  4  5  1  0
  5  6  1  0
  3  9  1  0
 10 11  1  0
  7 12  1  0
 11 12  1  0
 12 13  2  0
 13 14  1  0
 14 15  2  0
  1 16  1  0
 11 16  2  0
 15 16  1  0
  2 17  1  0
 14 17  1  0
  1 18  2  0
  1 19  1  0
 10 19  1  0
  8 20  1  0
 13 20  1  0
 15 21  1  0
  6 22  1  0
  6 23  2  0
M  END
$$$$
