1MEH_MOA_A_600
     RDKit          3D

 23 24  0  0  0  0  0  0  0  0999 V2000
   64.3482   48.9426   -8.5726 C   0  0  0  0  0  0  0  0  0  0  0  0
   68.7694   46.3614   -7.0125 C   0  0  0  0  0  0  0  0  0  0  0  0
   69.9759   46.1993   -6.4250 C   0  0  0  0  0  0  0  0  0  0  0  0
   70.9832   45.4918   -7.2618 C   0  0  0  0  0  0  0  0  0  0  0  0
   72.2112   45.0245   -6.5877 C   0  0  0  0  0  0  0  0  0  0  0  0
   73.1761   44.2906   -7.3865 C   0  0  0  0  0  0  0  0  0  0  0  0
   62.8043   44.8345   -6.7986 C   0  0  0  0  0  0  0  0  0  0  0  0
   65.8937   43.7612   -5.1978 C   0  0  0  0  0  0  0  0  0  0  0  0
   70.2204   46.6540   -5.0398 C   0  0  0  0  0  0  0  0  0  0  0  0
   62.5356   47.6666   -7.9537 C   0  0  0  0  0  0  0  0  0  0  0  0
   63.7797   46.9376   -7.7163 C   0  0  0  0  0  0  0  0  0  0  0  0
   63.9892   45.6585   -7.1989 C   0  0  0  0  0  0  0  0  0  0  0  0
   65.2845   45.1809   -7.0680 C   0  0  0  0  0  0  0  0  0  0  0  0
   66.3901   45.9199   -7.4296 C   0  0  0  0  0  0  0  0  0  0  0  0
   66.1852   47.1821   -7.9403 C   0  0  0  0  0  0  0  0  0  0  0  0
   64.8914   47.6737   -8.0771 C   0  0  0  0  0  0  0  0  0  0  0  0
   67.7548   45.3313   -7.2538 C   0  0  0  0  0  0  0  0  0  0  0  0
   65.0419   49.9221   -9.0122 O   0  0  0  0  0  0  0  0  0  0  0  0
   62.9655   48.9025   -8.4849 O   0  0  0  0  0  0  0  0  0  0  0  0
   65.3965   43.8817   -6.5374 O   0  0  0  0  0  0  0  0  0  0  0  0
   67.2817   47.9371   -8.3081 O   0  0  0  0  0  0  0  0  0  0  0  0
   74.4627   44.1194   -6.7897 O   0  0  0  0  0  0  0  0  0  0  0  0
   73.0650   43.7862   -8.5066 O   0  0  0  0  0  0  0  0  0  0  0  0
  2  3  2  0
  3  4  1  0
  4  5  1  0
  5  6  1  0
  3  9  1  0
 10 11  1  0
  7 12  1  0
 11 12  1  0
 12 13  2  0
 13 14  1  0
 14 15  2  0
  1 16  1  0
 11 16  2  0
 15 16  1  0
  2 17  1  0
 14 17  1  0
  1 18  2  0
  1 19  1  0
 10 19  1  0
  8 20  1  0
 13 20  1  0
 15 21  1  0
  6 22  1  0
  6 23  2  0
M  END
$$$$
