1MEH_MOA_A_600
     RDKit          3D

 23 24  0  0  0  0  0  0  0  0999 V2000
   49.9227   64.8143   21.7166 C   0  0  0  0  0  0  0  0  0  0  0  0
   53.0609   66.3251   26.1905 C   0  0  0  0  0  0  0  0  0  0  0  0
   53.4514   66.2459   27.4820 C   0  0  0  0  0  0  0  0  0  0  0  0
   53.9641   67.5207   28.0543 C   0  0  0  0  0  0  0  0  0  0  0  0
   54.3176   68.5930   27.1025 C   0  0  0  0  0  0  0  0  0  0  0  0
   54.7380   69.8679   27.6555 C   0  0  0  0  0  0  0  0  0  0  0  0
   52.9129   68.3572   20.7606 C   0  0  0  0  0  0  0  0  0  0  0  0
   52.8291   70.1308   23.5441 C   0  0  0  0  0  0  0  0  0  0  0  0
   53.4084   64.9644   28.2178 C   0  0  0  0  0  0  0  0  0  0  0  0
   50.9582   66.0835   20.0999 C   0  0  0  0  0  0  0  0  0  0  0  0
   51.3672   66.5200   21.4332 C   0  0  0  0  0  0  0  0  0  0  0  0
   52.2431   67.5358   21.8188 C   0  0  0  0  0  0  0  0  0  0  0  0
   52.4724   67.7611   23.1678 C   0  0  0  0  0  0  0  0  0  0  0  0
   51.8679   67.0191   24.1594 C   0  0  0  0  0  0  0  0  0  0  0  0
   51.0033   66.0166   23.7806 C   0  0  0  0  0  0  0  0  0  0  0  0
   50.7641   65.7797   22.4312 C   0  0  0  0  0  0  0  0  0  0  0  0
   52.1716   67.3253   25.5925 C   0  0  0  0  0  0  0  0  0  0  0  0
   49.1836   63.9283   22.2669 O   0  0  0  0  0  0  0  0  0  0  0  0
   50.0621   65.0216   20.3533 O   0  0  0  0  0  0  0  0  0  0  0  0
   53.3701   68.8055   23.4598 O   0  0  0  0  0  0  0  0  0  0  0  0
   50.3883   65.2628   24.7610 O   0  0  0  0  0  0  0  0  0  0  0  0
   55.2196   70.8196   26.7051 O   0  0  0  0  0  0  0  0  0  0  0  0
   54.7473   70.2667   28.8225 O   0  0  0  0  0  0  0  0  0  0  0  0
  2  3  2  0
  3  4  1  0
  4  5  1  0
  5  6  1  0
  3  9  1  0
 10 11  1  0
  7 12  1  0
 11 12  1  0
 12 13  2  0
 13 14  1  0
 14 15  2  0
  1 16  1  0
 11 16  2  0
 15 16  1  0
  2 17  1  0
 14 17  1  0
  1 18  2  0
  1 19  1  0
 10 19  1  0
  8 20  1  0
 13 20  1  0
 15 21  1  0
  6 22  1  0
  6 23  2  0
M  END
$$$$
