1MEH_MOA_A_600
     RDKit          3D

 23 24  0  0  0  0  0  0  0  0999 V2000
   52.8592   62.8958   29.8216 C   0  0  0  0  0  0  0  0  0  0  0  0
   50.5881   58.0720   27.3507 C   0  0  0  0  0  0  0  0  0  0  0  0
   50.3446   57.1965   26.3502 C   0  0  0  0  0  0  0  0  0  0  0  0
   48.9841   57.2978   25.7548 C   0  0  0  0  0  0  0  0  0  0  0  0
   47.8352   57.0963   26.6605 C   0  0  0  0  0  0  0  0  0  0  0  0
   46.5091   57.0921   26.0695 C   0  0  0  0  0  0  0  0  0  0  0  0
   50.3368   59.9650   32.5519 C   0  0  0  0  0  0  0  0  0  0  0  0
   47.8862   58.9911   30.3566 C   0  0  0  0  0  0  0  0  0  0  0  0
   51.3553   56.1969   25.9444 C   0  0  0  0  0  0  0  0  0  0  0  0
   52.2868   62.2612   31.9584 C   0  0  0  0  0  0  0  0  0  0  0  0
   51.5988   61.4272   30.9752 C   0  0  0  0  0  0  0  0  0  0  0  0
   50.7042   60.3718   31.1581 C   0  0  0  0  0  0  0  0  0  0  0  0
   50.1773   59.7262   30.0497 C   0  0  0  0  0  0  0  0  0  0  0  0
   50.4998   60.0825   28.7580 C   0  0  0  0  0  0  0  0  0  0  0  0
   51.3823   61.1237   28.5758 C   0  0  0  0  0  0  0  0  0  0  0  0
   51.9183   61.7800   29.6786 C   0  0  0  0  0  0  0  0  0  0  0  0
   49.8884   59.3325   27.6163 C   0  0  0  0  0  0  0  0  0  0  0  0
   53.4091   63.5273   28.8557 O   0  0  0  0  0  0  0  0  0  0  0  0
   53.0515   63.1494   31.1705 O   0  0  0  0  0  0  0  0  0  0  0  0
   49.2846   58.6751   30.3328 O   0  0  0  0  0  0  0  0  0  0  0  0
   51.7170   61.4945   27.2882 O   0  0  0  0  0  0  0  0  0  0  0  0
   45.4262   56.9755   26.9939 O   0  0  0  0  0  0  0  0  0  0  0  0
   46.1619   57.1735   24.8888 O   0  0  0  0  0  0  0  0  0  0  0  0
  2  3  2  0
  3  4  1  0
  4  5  1  0
  5  6  1  0
  3  9  1  0
 10 11  1  0
  7 12  1  0
 11 12  1  0
 12 13  2  0
 13 14  1  0
 14 15  2  0
  1 16  1  0
 11 16  2  0
 15 16  1  0
  2 17  1  0
 14 17  1  0
  1 18  2  0
  1 19  1  0
 10 19  1  0
  8 20  1  0
 13 20  1  0
 15 21  1  0
  6 22  1  0
  6 23  2  0
M  END
$$$$
