1MEH_MOA_A_600
     RDKit          3D

 23 24  0  0  0  0  0  0  0  0999 V2000
   61.1665   24.7967    4.4725 C   0  0  0  0  0  0  0  0  0  0  0  0
   56.0259   26.9315    5.5409 C   0  0  0  0  0  0  0  0  0  0  0  0
   54.7977   27.4334    5.2832 C   0  0  0  0  0  0  0  0  0  0  0  0
   54.3241   28.4485    6.2635 C   0  0  0  0  0  0  0  0  0  0  0  0
   53.4805   27.9685    7.3765 C   0  0  0  0  0  0  0  0  0  0  0  0
   53.0627   28.9426    8.3687 C   0  0  0  0  0  0  0  0  0  0  0  0
   60.2989   25.2650    9.1022 C   0  0  0  0  0  0  0  0  0  0  0  0
   57.2334   26.9672    8.9685 C   0  0  0  0  0  0  0  0  0  0  0  0
   53.9967   26.9482    4.1393 C   0  0  0  0  0  0  0  0  0  0  0  0
   62.0317   24.8322    6.6048 C   0  0  0  0  0  0  0  0  0  0  0  0
   60.5856   25.0406    6.6356 C   0  0  0  0  0  0  0  0  0  0  0  0
   59.7279   25.2432    7.7178 C   0  0  0  0  0  0  0  0  0  0  0  0
   58.3718   25.4195    7.4878 C   0  0  0  0  0  0  0  0  0  0  0  0
   57.8233   25.4039    6.2236 C   0  0  0  0  0  0  0  0  0  0  0  0
   58.6681   25.2041    5.1548 C   0  0  0  0  0  0  0  0  0  0  0  0
   60.0304   25.0259    5.3710 C   0  0  0  0  0  0  0  0  0  0  0  0
   56.3484   25.5998    6.0620 C   0  0  0  0  0  0  0  0  0  0  0  0
   61.0963   24.7119    3.1989 O   0  0  0  0  0  0  0  0  0  0  0  0
   62.3219   24.6877    5.2302 O   0  0  0  0  0  0  0  0  0  0  0  0
   57.5864   25.6170    8.6394 O   0  0  0  0  0  0  0  0  0  0  0  0
   58.1359   25.1855    3.8805 O   0  0  0  0  0  0  0  0  0  0  0  0
   52.3831   28.4071    9.5055 O   0  0  0  0  0  0  0  0  0  0  0  0
   53.2002   30.1681    8.3903 O   0  0  0  0  0  0  0  0  0  0  0  0
  2  3  2  0
  3  4  1  0
  4  5  1  0
  5  6  1  0
  3  9  1  0
 10 11  1  0
  7 12  1  0
 11 12  1  0
 12 13  2  0
 13 14  1  0
 14 15  2  0
  1 16  1  0
 11 16  2  0
 15 16  1  0
  2 17  1  0
 14 17  1  0
  1 18  2  0
  1 19  1  0
 10 19  1  0
  8 20  1  0
 13 20  1  0
 15 21  1  0
  6 22  1  0
  6 23  2  0
M  END
$$$$
