1MEH_MOA_A_600
     RDKit          3D

 23 24  0  0  0  0  0  0  0  0999 V2000
   54.9916   61.7134   28.7013 C   0  0  0  0  0  0  0  0  0  0  0  0
   56.8764   66.3817   31.7356 C   0  0  0  0  0  0  0  0  0  0  0  0
   56.6175   67.3442   32.6486 C   0  0  0  0  0  0  0  0  0  0  0  0
   57.3946   68.6001   32.4631 C   0  0  0  0  0  0  0  0  0  0  0  0
   58.8669   68.4949   32.5086 C   0  0  0  0  0  0  0  0  0  0  0  0
   59.6302   69.7245   32.3939 C   0  0  0  0  0  0  0  0  0  0  0  0
   59.5166   63.0162   28.2178 C   0  0  0  0  0  0  0  0  0  0  0  0
   59.3584   66.2591   28.2197 C   0  0  0  0  0  0  0  0  0  0  0  0
   55.6713   67.1107   33.7601 C   0  0  0  0  0  0  0  0  0  0  0  0
   57.0992   61.1388   27.9769 C   0  0  0  0  0  0  0  0  0  0  0  0
   57.1026   62.4852   28.5450 C   0  0  0  0  0  0  0  0  0  0  0  0
   58.1482   63.3978   28.6919 C   0  0  0  0  0  0  0  0  0  0  0  0
   57.8974   64.6328   29.2707 C   0  0  0  0  0  0  0  0  0  0  0  0
   56.6472   65.0067   29.7140 C   0  0  0  0  0  0  0  0  0  0  0  0
   55.6145   64.1074   29.5698 C   0  0  0  0  0  0  0  0  0  0  0  0
   55.8518   62.8653   28.9909 C   0  0  0  0  0  0  0  0  0  0  0  0
   56.4616   66.3580   30.3298 C   0  0  0  0  0  0  0  0  0  0  0  0
   53.7412   61.6419   28.9568 O   0  0  0  0  0  0  0  0  0  0  0  0
   55.7564   60.7213   28.1081 O   0  0  0  0  0  0  0  0  0  0  0  0
   59.0124   65.4858   29.3765 O   0  0  0  0  0  0  0  0  0  0  0  0
   54.3547   64.4651   30.0083 O   0  0  0  0  0  0  0  0  0  0  0  0
   60.5630   69.7687   31.3127 O   0  0  0  0  0  0  0  0  0  0  0  0
   59.6044   70.7465   33.0839 O   0  0  0  0  0  0  0  0  0  0  0  0
  2  3  2  0
  3  4  1  0
  4  5  1  0
  5  6  1  0
  3  9  1  0
 10 11  1  0
  7 12  1  0
 11 12  1  0
 12 13  2  0
 13 14  1  0
 14 15  2  0
  1 16  1  0
 11 16  2  0
 15 16  1  0
  2 17  1  0
 14 17  1  0
  1 18  2  0
  1 19  1  0
 10 19  1  0
  8 20  1  0
 13 20  1  0
 15 21  1  0
  6 22  1  0
  6 23  2  0
M  END
$$$$
