1MEH_MOA_A_600
     RDKit          3D

 23 24  0  0  0  0  0  0  0  0999 V2000
   66.2250   64.9661   18.8364 C   0  0  0  0  0  0  0  0  0  0  0  0
   68.1071   67.4236   14.2663 C   0  0  0  0  0  0  0  0  0  0  0  0
   69.1674   68.0326   13.6903 C   0  0  0  0  0  0  0  0  0  0  0  0
   70.0766   67.1203   12.9441 C   0  0  0  0  0  0  0  0  0  0  0  0
   71.3323   66.7247   13.6132 C   0  0  0  0  0  0  0  0  0  0  0  0
   72.2010   65.7963   12.9123 C   0  0  0  0  0  0  0  0  0  0  0  0
   62.6056   65.7468   15.8873 C   0  0  0  0  0  0  0  0  0  0  0  0
   64.6434   67.0563   13.0078 C   0  0  0  0  0  0  0  0  0  0  0  0
   69.4007   69.4829   13.8561 C   0  0  0  0  0  0  0  0  0  0  0  0
   64.0227   64.5344   18.3263 C   0  0  0  0  0  0  0  0  0  0  0  0
   64.6082   65.4408   17.3408 C   0  0  0  0  0  0  0  0  0  0  0  0
   64.0394   66.0328   16.2123 C   0  0  0  0  0  0  0  0  0  0  0  0
   64.8113   66.8697   15.4205 C   0  0  0  0  0  0  0  0  0  0  0  0
   66.1320   67.1482   15.6993 C   0  0  0  0  0  0  0  0  0  0  0  0
   66.6947   66.5649   16.8124 C   0  0  0  0  0  0  0  0  0  0  0  0
   65.9320   65.7235   17.6153 C   0  0  0  0  0  0  0  0  0  0  0  0
   66.8960   68.0607   14.7919 C   0  0  0  0  0  0  0  0  0  0  0  0
   67.3513   64.9446   19.4406 O   0  0  0  0  0  0  0  0  0  0  0  0
   65.0837   64.2815   19.2235 O   0  0  0  0  0  0  0  0  0  0  0  0
   64.1522   67.4201   14.3049 O   0  0  0  0  0  0  0  0  0  0  0  0
   68.0171   66.8327   17.1072 O   0  0  0  0  0  0  0  0  0  0  0  0
   73.3395   65.3467   13.6489 O   0  0  0  0  0  0  0  0  0  0  0  0
   72.1156   65.3282   11.7744 O   0  0  0  0  0  0  0  0  0  0  0  0
  2  3  2  0
  3  4  1  0
  4  5  1  0
  5  6  1  0
  3  9  1  0
 10 11  1  0
  7 12  1  0
 11 12  1  0
 12 13  2  0
 13 14  1  0
 14 15  2  0
  1 16  1  0
 11 16  2  0
 15 16  1  0
  2 17  1  0
 14 17  1  0
  1 18  2  0
  1 19  1  0
 10 19  1  0
  8 20  1  0
 13 20  1  0
 15 21  1  0
  6 22  1  0
  6 23  2  0
M  END
$$$$
