1HQ2_PH2_A_181
     RDKit          3D

 23 24  0  0  0  0  0  0  0  0999 V2000
   -0.5800    1.3499   -0.3788 N   0  0  0  0  0  0  0  0  0  0  0  0
   -1.3247    0.9800   -1.3812 C   0  0  0  0  0  0  0  0  0  0  0  0
   -1.5188   -0.4822   -1.7408 C   0  0  0  0  0  0  0  0  0  0  0  0
   -0.6688   -1.3866   -0.9612 N   0  0  0  0  0  0  0  0  0  0  0  0
    0.8076   -1.8113    0.9109 N   0  0  0  0  0  0  0  0  0  0  0  0
    1.5521   -1.3818    1.9652 C   0  0  0  0  0  0  0  0  0  0  0  0
    2.2773   -2.3274    2.7512 N   0  0  0  0  0  0  0  0  0  0  0  0
    1.6034   -0.0525    2.2658 N   0  0  0  0  0  0  0  0  0  0  0  0
    0.9169    0.8581    1.5211 C   0  0  0  0  0  0  0  0  0  0  0  0
    0.9779    2.0835    1.8103 O   0  0  0  0  0  0  0  0  0  0  0  0
    0.1472    0.4271    0.4372 C   0  0  0  0  0  0  0  0  0  0  0  0
    0.1073   -0.9325    0.1481 C   0  0  0  0  0  0  0  0  0  0  0  0
   -2.0553    2.0308   -2.1643 C   0  0  0  0  0  0  0  0  0  0  0  0
   -1.1424    2.8496   -2.8432 O   0  0  0  0  0  0  0  0  0  0  0  0
   -2.5819   -0.7546   -1.5709 H   0  0  0  0  0  0  0  0  0  0  0  0
   -1.2918   -0.6206   -2.8191 H   0  0  0  0  0  0  0  0  0  0  0  0
   -0.6899   -2.4073   -1.1833 H   0  0  0  0  0  0  0  0  0  0  0  0
    2.8541   -2.0155    3.5637 H   0  0  0  0  0  0  0  0  0  0  0  0
    2.2379   -3.3449    2.5203 H   0  0  0  0  0  0  0  0  0  0  0  0
    2.1775    0.2735    3.0764 H   0  0  0  0  0  0  0  0  0  0  0  0
   -2.7245    1.5552   -2.9125 H   0  0  0  0  0  0  0  0  0  0  0  0
   -2.6951    2.6345   -1.4811 H   0  0  0  0  0  0  0  0  0  0  0  0
   -0.7966    3.5035   -2.1806 H   0  0  0  0  0  0  0  0  0  0  0  0
  1  2  2  0
  2  3  1  0
  3  4  1  0
  5  6  2  0
  6  7  1  0
  6  8  1  0
  8  9  1  0
  9 10  2  0
  1 11  1  0
  9 11  1  0
  4 12  1  0
  5 12  1  0
 11 12  2  0
  2 13  1  0
 13 14  1  0
  3 15  1  0
  3 16  1  0
  4 17  1  0
  7 18  1  0
  7 19  1  0
  8 20  1  0
 13 21  1  0
 13 22  1  0
 14 23  1  0
M  END
