1HQ2_PH2_A_181
     RDKit          3D

 14 15  0  0  0  0  0  0  0  0999 V2000
   -7.6100    6.9510   18.0030 N   0  0  0  0  0  0  0  0  0  0  0  0
   -7.4910    7.1060   19.2760 C   0  0  0  0  0  0  0  0  0  0  0  0
   -8.3500    8.3090   19.9180 C   0  0  0  0  0  0  0  0  0  0  0  0
   -9.1070    9.0370   19.0730 N   0  0  0  0  0  0  0  0  0  0  0  0
   -9.9130    9.5310   16.9810 N   0  0  0  0  0  0  0  0  0  0  0  0
  -10.0420    9.3670   15.6090 C   0  0  0  0  0  0  0  0  0  0  0  0
  -10.7600   10.0850   14.9250 N   0  0  0  0  0  0  0  0  0  0  0  0
   -9.2940    8.3350   15.1160 N   0  0  0  0  0  0  0  0  0  0  0  0
   -8.5060    7.5200   15.7530 C   0  0  0  0  0  0  0  0  0  0  0  0
   -7.8600    6.6070   15.2360 O   0  0  0  0  0  0  0  0  0  0  0  0
   -8.4450    7.7730   17.1430 C   0  0  0  0  0  0  0  0  0  0  0  0
   -9.1830    8.8080   17.7070 C   0  0  0  0  0  0  0  0  0  0  0  0
   -6.6900    6.3440   20.2100 C   0  0  0  0  0  0  0  0  0  0  0  0
   -5.7980    5.4760   19.5280 O   0  0  0  0  0  0  0  0  0  0  0  0
  1  2  2  0
  2  3  1  0
  3  4  1  0
  5  6  2  0
  6  7  1  0
  6  8  1  0
  8  9  1  0
  9 10  2  0
  1 11  1  0
  9 11  1  0
  4 12  1  0
  5 12  1  0
 11 12  2  0
  2 13  1  0
 13 14  1  0
M  END
$$$$
