1T9B_1CS_A_695
     RDKit          3D

 23 24  0  0  0  0  0  0  0  0999 V2000
   25.8790   30.1660  137.7790 C   0  0  0  0  0  0  0  0  0  0  0  0
   25.3140   28.8750  137.6340 O   0  0  0  0  0  0  0  0  0  0  0  0
   25.2060   28.2670  136.3270 C   0  0  0  0  0  0  0  0  0  0  0  0
   25.6770   28.9940  135.1990 N   0  0  0  0  0  0  0  0  0  0  0  0
   25.5660   28.3690  133.9060 C   0  0  0  0  0  0  0  0  0  0  0  0
   26.0370   29.1020  132.7740 C   0  0  0  0  0  0  0  0  0  0  0  0
   25.0040   27.0730  133.7460 N   0  0  0  0  0  0  0  0  0  0  0  0
   24.5420   26.3820  134.9240 C   0  0  0  0  0  0  0  0  0  0  0  0
   24.0020   25.1520  134.8100 N   0  0  0  0  0  0  0  0  0  0  0  0
   23.5310   24.4130  135.8380 C   0  0  0  0  0  0  0  0  0  0  0  0
   23.4920   24.6940  137.0510 O   0  0  0  0  0  0  0  0  0  0  0  0
   23.0560   23.2540  135.3240 N   0  0  0  0  0  0  0  0  0  0  0  0
   22.3540   22.0450  136.2270 S   0  0  0  0  0  0  0  0  0  0  0  0
   23.1170   21.0510  136.9430 O   0  0  0  0  0  0  0  0  0  0  0  0
   21.6960   21.6790  134.9860 O   0  0  0  0  0  0  0  0  0  0  0  0
   20.9380   22.7280  137.0080 C   0  0  0  0  0  0  0  0  0  0  0  0
   20.7650   22.1350  138.3120 C   0  0  0  0  0  0  0  0  0  0  0  0
   19.6400   22.5470  139.1710 C   0  0  0  0  0  0  0  0  0  0  0  0
   18.6960   23.5720  138.6860 C   0  0  0  0  0  0  0  0  0  0  0  0
   18.8820   24.1420  137.4030 C   0  0  0  0  0  0  0  0  0  0  0  0
   19.9790   23.7430  136.5530 C   0  0  0  0  0  0  0  0  0  0  0  0
   24.6630   27.0110  136.1820 N   0  0  0  0  0  0  0  0  0  0  0  0
   20.1170   24.4860  135.0260 Cl  0  0  0  0  0  0  0  0  0  0  0  0
  1  2  1  0
  2  3  1  0
  3  4  2  0
  4  5  1  0
  5  6  1  0
  5  7  2  0
  7  8  1  0
  8  9  1  0
  9 10  1  0
 10 11  2  0
 10 12  1  0
 12 13  1  0
 13 14  2  0
 13 15  2  0
 13 16  1  0
 16 17  2  0
 17 18  1  0
 18 19  2  0
 19 20  1  0
 16 21  1  0
 20 21  2  0
  3 22  1  0
  8 22  2  0
 21 23  1  0
M  END
$$$$
1T9B_1CS_B_1695
     RDKit          3D

 23 24  0  0  0  0  0  0  0  0999 V2000
   -5.6700   52.5360  118.7470 C   0  0  0  0  0  0  0  0  0  0  0  0
   -6.7340   52.1970  119.6030 O   0  0  0  0  0  0  0  0  0  0  0  0
   -6.7480   52.6780  120.9590 C   0  0  0  0  0  0  0  0  0  0  0  0
   -5.6720   53.4900  121.3960 N   0  0  0  0  0  0  0  0  0  0  0  0
   -5.7020   53.9620  122.7430 C   0  0  0  0  0  0  0  0  0  0  0  0
   -4.6130   54.7740  123.1810 C   0  0  0  0  0  0  0  0  0  0  0  0
   -6.7590   53.6340  123.6260 N   0  0  0  0  0  0  0  0  0  0  0  0
   -7.8250   52.8060  123.1330 C   0  0  0  0  0  0  0  0  0  0  0  0
   -8.8410   52.4660  123.9490 N   0  0  0  0  0  0  0  0  0  0  0  0
   -9.8820   51.6880  123.6020 C   0  0  0  0  0  0  0  0  0  0  0  0
  -10.1240   51.1410  122.5090 O   0  0  0  0  0  0  0  0  0  0  0  0
  -10.6660   51.5410  124.6930 N   0  0  0  0  0  0  0  0  0  0  0  0
  -12.0350   50.6070  124.6980 S   0  0  0  0  0  0  0  0  0  0  0  0
  -13.2920   51.0400  124.1490 O   0  0  0  0  0  0  0  0  0  0  0  0
  -11.8610   50.5510  126.1390 O   0  0  0  0  0  0  0  0  0  0  0  0
  -11.4930   48.9690  124.3530 C   0  0  0  0  0  0  0  0  0  0  0  0
  -12.4580   48.2930  123.5240 C   0  0  0  0  0  0  0  0  0  0  0  0
  -12.2250   46.9030  123.0910 C   0  0  0  0  0  0  0  0  0  0  0  0
  -10.9900   46.2120  123.5120 C   0  0  0  0  0  0  0  0  0  0  0  0
  -10.0540   46.8930  124.3290 C   0  0  0  0  0  0  0  0  0  0  0  0
  -10.2790   48.2540  124.7580 C   0  0  0  0  0  0  0  0  0  0  0  0
   -7.7810   52.3560  121.8040 N   0  0  0  0  0  0  0  0  0  0  0  0
   -9.0940   48.9900  125.7400 Cl  0  0  0  0  0  0  0  0  0  0  0  0
  1  2  1  0
  2  3  1  0
  3  4  2  0
  4  5  1  0
  5  6  1  0
  5  7  2  0
  7  8  1  0
  8  9  1  0
  9 10  1  0
 10 11  2  0
 10 12  1  0
 12 13  1  0
 13 14  2  0
 13 15  2  0
 13 16  1  0
 16 17  2  0
 17 18  1  0
 18 19  2  0
 19 20  1  0
 16 21  1  0
 20 21  2  0
  3 22  1  0
  8 22  2  0
 21 23  1  0
M  END
$$$$
