1Q4G_BFL_B_1701
     RDKit          3D

 17 18  0  0  0  0  0  0  0  0999 V2000
   37.3415   46.1595  217.0662 C   0  0  0  0  0  0  0  0  0  0  0  0
   33.9134   48.2831  213.8965 C   0  0  0  0  0  0  0  0  0  0  0  0
   34.5332   47.0351  213.8202 C   0  0  0  0  0  0  0  0  0  0  0  0
   35.4998   46.7507  214.7729 C   0  0  0  0  0  0  0  0  0  0  0  0
   39.8206   46.7484  219.8121 C   0  0  1  0  0  0  0  0  0  0  0  0
   39.4493   45.5952  220.6747 C   0  0  0  0  0  0  0  0  0  0  0  0
   41.2007   46.5423  219.2936 C   0  0  0  0  0  0  0  0  0  0  0  0
   38.2930   45.9367  218.0347 C   0  0  0  0  0  0  0  0  0  0  0  0
   38.7991   46.9987  218.7736 C   0  0  0  0  0  0  0  0  0  0  0  0
   38.3103   48.2822  218.4976 C   0  0  0  0  0  0  0  0  0  0  0  0
   37.3489   48.4663  217.5111 C   0  0  0  0  0  0  0  0  0  0  0  0
   36.8460   47.3958  216.7741 C   0  0  0  0  0  0  0  0  0  0  0  0
   35.8367   47.6566  215.7529 C   0  0  0  0  0  0  0  0  0  0  0  0
   35.1909   48.8759  215.7800 C   0  0  0  0  0  0  0  0  0  0  0  0
   34.2228   49.2087  214.8569 C   0  0  0  0  0  0  0  0  0  0  0  0
   38.8906   45.7706  221.9386 O   0  0  0  0  0  0  0  0  0  0  0  0
   39.6196   44.3893  220.3097 O   0  0  0  0  0  0  0  0  0  0  0  0
  2  3  2  0
  3  4  1  0
  5  6  1  6
  7  5  1  6
  1  8  2  0
  5  9  1  0
  8  9  1  0
  9 10  2  0
 10 11  1  0
  1 12  1  0
 11 12  2  0
  4 13  2  0
 12 13  1  0
 13 14  1  0
  2 15  1  0
 14 15  2  0
  6 16  1  0
  6 17  2  0
M  END
$$$$
