1UML_FR4_A_1001
     RDKit          3D

 60 63  0  0  0  0  0  0  0  0999 V2000
   51.6124   55.1444   21.6114 C   0  0  0  0  0  0  0  0  0  0  0  0
   50.6427   55.5167   20.7601 N   0  0  0  0  0  0  0  0  0  0  0  0
   50.5508   56.8582   20.8729 C   0  0  0  0  0  0  0  0  0  0  0  0
   51.4343   57.3646   21.7578 N   0  0  0  0  0  0  0  0  0  0  0  0
   52.1008   56.2848   22.2170 C   0  0  0  0  0  0  0  0  0  0  0  0
   53.1827   56.3652   23.2144 C   0  0  0  0  0  0  0  0  0  0  0  0
   52.9037   56.2392   24.4378 O   0  0  0  0  0  0  0  0  0  0  0  0
   54.5416   56.5879   22.8264 N   0  0  0  0  0  0  0  0  0  0  0  0
   49.8411   54.6276   19.9088 C   0  0  1  0  0  0  0  0  0  0  0  0
   48.3452   54.8254   20.1943 C   0  0  1  0  0  0  0  0  0  0  0  0
   48.1772   55.4214   21.4509 O   0  0  0  0  0  0  0  0  0  0  0  0
   50.1448   54.8651   18.4143 C   0  0  2  0  0  0  0  0  0  0  0  0
   51.4419   54.1898   17.9409 C   0  0  2  0  0  0  0  0  0  0  0  0
   51.2578   52.7491   17.7494 N   0  0  0  0  0  0  0  0  0  0  0  0
   52.2264   51.8045   17.8308 C   0  0  0  0  0  0  0  0  0  0  0  0
   51.6930   50.5380   17.6225 C   0  0  0  0  0  0  0  0  0  0  0  0
   50.3466   50.7419   17.4061 C   0  0  0  0  0  0  0  0  0  0  0  0
   50.1114   52.0893   17.4867 C   0  0  0  0  0  0  0  0  0  0  0  0
   49.3293   49.8313   17.1358 C   0  0  0  0  0  0  0  0  0  0  0  0
   48.0280   50.3330   16.9527 C   0  0  0  0  0  0  0  0  0  0  0  0
   47.7682   51.7255   17.0510 C   0  0  0  0  0  0  0  0  0  0  0  0
   48.8318   52.6181   17.3011 C   0  0  0  0  0  0  0  0  0  0  0  0
   46.4485   52.2547   16.8525 N   0  0  0  0  0  0  0  0  0  0  0  0
   45.2794   51.7698   17.5348 C   0  0  0  0  0  0  0  0  0  0  0  0
   45.1899   50.5635   17.8877 O   0  0  0  0  0  0  0  0  0  0  0  0
   44.1945   52.7305   17.9233 C   0  0  1  0  0  0  0  0  0  0  0  0
   44.7540   54.1357   18.1881 C   0  0  1  0  0  0  0  0  0  0  0  0
   45.6429   55.7669   16.4727 C   0  0  0  0  0  0  0  0  0  0  0  0
   45.7711   54.5424   17.1498 C   0  0  0  0  0  0  0  0  0  0  0  0
   46.8172   53.6707   16.7988 C   0  0  0  0  0  0  0  0  0  0  0  0
   47.7242   54.0254   15.7946 C   0  0  0  0  0  0  0  0  0  0  0  0
   47.5878   55.2448   15.1263 C   0  0  0  0  0  0  0  0  0  0  0  0
   46.5488   56.1154   15.4655 C   0  0  0  0  0  0  0  0  0  0  0  0
   51.9288   54.1241   21.7715 H   0  0  0  0  0  0  0  0  0  0  0  0
   49.8476   57.4668   20.3197 H   0  0  0  0  0  0  0  0  0  0  0  0
   55.2444   56.8918   23.5375 H   0  0  0  0  0  0  0  0  0  0  0  0
   54.8620   56.4521   21.8418 H   0  0  0  0  0  0  0  0  0  0  0  0
   50.0846   53.5675   20.1486 H   0  0  0  0  0  0  0  0  0  0  0  0
   47.8882   55.4699   19.4093 H   0  0  0  0  0  0  0  0  0  0  0  0
   47.8325   53.8368   20.1850 H   0  0  0  0  0  0  0  0  0  0  0  0
   47.3448   55.0364   21.8298 H   0  0  0  0  0  0  0  0  0  0  0  0
   50.2207   55.9557   18.2139 H   0  0  0  0  0  0  0  0  0  0  0  0
   49.2981   54.4817   17.8079 H   0  0  0  0  0  0  0  0  0  0  0  0
   52.2569   54.3767   18.6732 H   0  0  0  0  0  0  0  0  0  0  0  0
   51.7599   54.6495   16.9802 H   0  0  0  0  0  0  0  0  0  0  0  0
   53.2693   52.0160   18.0281 H   0  0  0  0  0  0  0  0  0  0  0  0
   52.2236   49.5945   17.6270 H   0  0  0  0  0  0  0  0  0  0  0  0
   49.5334   48.7709   17.0591 H   0  0  0  0  0  0  0  0  0  0  0  0
   47.2343   49.6404   16.7083 H   0  0  0  0  0  0  0  0  0  0  0  0
   48.6546   53.6843   17.3540 H   0  0  0  0  0  0  0  0  0  0  0  0
   46.3677   53.1671   16.3502 H   0  0  0  0  0  0  0  0  0  0  0  0
   43.4230   52.7741   17.1243 H   0  0  0  0  0  0  0  0  0  0  0  0
   43.6953   52.3618   18.8450 H   0  0  0  0  0  0  0  0  0  0  0  0
   43.9142   54.8631   18.1811 H   0  0  0  0  0  0  0  0  0  0  0  0
   45.2018   54.1708   19.2055 H   0  0  0  0  0  0  0  0  0  0  0  0
   44.8353   56.4433   16.7182 H   0  0  0  0  0  0  0  0  0  0  0  0
   46.9242   52.7139   17.2956 H   0  0  0  0  0  0  0  0  0  0  0  0
   48.5308   53.3525   15.5335 H   0  0  0  0  0  0  0  0  0  0  0  0
   48.2873   55.5139   14.3453 H   0  0  0  0  0  0  0  0  0  0  0  0
   46.4428   57.0589   14.9450 H   0  0  0  0  0  0  0  0  0  0  0  0
  1  2  1  0
  2  3  1  0
  3  4  2  0
  1  5  2  0
  4  5  1  0
  5  6  1  0
  6  7  2  0
  6  8  1  0
  2  9  1  0
  9 10  1  0
 10 11  1  0
  9 12  1  0
 12 13  1  0
 13 14  1  0
 14 15  1  0
 15 16  2  0
 16 17  1  0
 14 18  1  0
 17 18  2  0
 17 19  1  0
 19 20  2  0
 20 21  1  0
 18 22  1  0
 21 22  2  0
 21 23  1  0
 23 24  1  0
 24 25  2  0
 24 26  1  0
 26 27  1  0
 27 29  1  0
 28 29  2  0
 29 30  1  0
 30 31  2  0
 31 32  1  0
 28 33  1  0
 32 33  2  0
  1 34  1  0
  3 35  1  0
  8 36  1  0
  8 37  1  0
  9 38  1  1
 10 39  1  6
 10 40  1  0
 11 41  1  0
 12 42  1  1
 12 43  1  0
 13 44  1  1
 13 45  1  0
 15 46  1  0
 16 47  1  0
 19 48  1  0
 20 49  1  0
 22 50  1  0
 23 51  1  0
 26 52  1  6
 26 53  1  0
 27 54  1  1
 27 55  1  0
 28 56  1  0
 30 57  1  0
 31 58  1  0
 32 59  1  0
 33 60  1  0
M  END
