7CTM_BDP_A_501
     RDKit          3D

 13 13  0  0  0  0  0  0  0  0999 V2000
   -2.0295   -7.9058  103.9454 C   0  0  1  0  0  0  0  0  0  0  0  0
   -1.8251   -6.7957  104.9613 C   0  0  1  0  0  0  0  0  0  0  0  0
   -3.1437   -6.2793  105.4465 C   0  0  2  0  0  0  0  0  0  0  0  0
   -3.9822   -5.9497  104.2178 C   0  0  1  0  0  0  0  0  0  0  0  0
   -4.1277   -7.2702  103.4642 C   0  0  1  0  0  0  0  0  0  0  0  0
   -5.1924   -7.2501  102.4510 C   0  0  0  0  0  0  0  0  0  0  0  0
   -1.0320   -7.3152  105.9838 O   0  0  0  0  0  0  0  0  0  0  0  0
   -2.9436   -5.1698  106.2580 O   0  0  0  0  0  0  0  0  0  0  0  0
   -5.1845   -5.3906  104.5735 O   0  0  0  0  0  0  0  0  0  0  0  0
   -2.8767   -7.5171  102.9169 O   0  0  0  0  0  0  0  0  0  0  0  0
   -5.7060   -6.1853  101.9865 O   0  0  0  0  0  0  0  0  0  0  0  0
   -0.8116   -8.2536  103.3712 O   0  0  0  0  0  0  0  0  0  0  0  0
   -5.6607   -8.4697  101.9773 O   0  0  0  0  0  0  0  0  0  0  0  0
  1  2  1  0
  2  3  1  0
  3  4  1  0
  4  5  1  0
  5  6  1  6
  2  7  1  1
  3  8  1  1
  4  9  1  1
  1 10  1  0
  5 10  1  0
  6 11  2  0
  1 12  1  6
  6 13  1  0
M  END
$$$$
