7AKL_RK5_A_501
     RDKit          3D

 19 21  0  0  0  0  0  0  0  0999 V2000
   42.3004   -0.8733    9.8851 C   0  0  0  0  0  0  0  0  0  0  0  0
   42.5529    0.3192   10.7447 C   0  0  0  0  0  0  0  0  0  0  0  0
   42.9031    0.3631   12.0910 C   0  0  0  0  0  0  0  0  0  0  0  0
   43.0565   -0.8120   12.9718 C   0  0  0  0  0  0  0  0  0  0  0  0
   43.0277    1.6971   12.4483 C   0  0  0  0  0  0  0  0  0  0  0  0
   43.3523    2.3469   13.6399 C   0  0  0  0  0  0  0  0  0  0  0  0
   43.3700    3.7309   13.6300 C   0  0  0  0  0  0  0  0  0  0  0  0
   43.0778    4.4157   12.4707 C   0  0  0  0  0  0  0  0  0  0  0  0
   42.7574    3.7645   11.2777 C   0  0  0  0  0  0  0  0  0  0  0  0
   42.7399    2.4017   11.2930 C   0  0  0  0  0  0  0  0  0  0  0  0
   42.4725    1.5545   10.3202 O   0  0  0  0  0  0  0  0  0  0  0  0
   43.7593    4.5177   14.8077 C   0  0  0  0  0  0  0  0  0  0  0  0
   44.1115    3.8928   16.0063 C   0  0  0  0  0  0  0  0  0  0  0  0
   44.4143    4.6388   17.1485 C   0  0  0  0  0  0  0  0  0  0  0  0
   44.8177    3.9383   18.3199 N   0  0  0  0  0  0  0  0  0  0  0  0
   44.3656    5.9814   17.0981 N   0  0  0  0  0  0  0  0  0  0  0  0
   44.0277    6.6149   15.9481 C   0  0  0  0  0  0  0  0  0  0  0  0
   43.9867    8.0573   16.0027 N   0  0  0  0  0  0  0  0  0  0  0  0
   43.7221    5.9205   14.7859 C   0  0  0  0  0  0  0  0  0  0  0  0
  1  2  1  1
  2  3  2  0
  4  3  1  1
  3  5  1  0
  5  6  1  0
  6  7  2  0
  7  8  1  0
  8  9  2  0
  5 10  2  0
  9 10  1  0
  2 11  1  0
 10 11  1  0
  7 12  1  0
 12 13  2  0
 13 14  1  0
 14 15  1  0
 14 16  2  0
 16 17  1  0
 17 18  1  0
 17 19  2  0
 12 19  1  0
M  END
$$$$
