6XG5_TOP_A_303
     RDKit          3D

 39 40  0  0  0  0  0  0  0  0999 V2000
   -8.2166   26.8273   20.1600 C   0  0  0  0  0  0  0  0  0  0  0  0
   -8.2961   25.9840   21.2050 N   0  0  0  0  0  0  0  0  0  0  0  0
   -8.8579   24.7736   20.9854 C   0  0  0  0  0  0  0  0  0  0  0  0
   -8.9447   23.9242   22.0107 N   0  0  0  0  0  0  0  0  0  0  0  0
   -9.3523   24.3703   19.8038 N   0  0  0  0  0  0  0  0  0  0  0  0
   -9.2327   25.2132   18.7568 C   0  0  0  0  0  0  0  0  0  0  0  0
   -9.7042   24.7652   17.5736 N   0  0  0  0  0  0  0  0  0  0  0  0
   -8.6635   26.5129   18.8854 C   0  0  0  0  0  0  0  0  0  0  0  0
   -8.4873   27.4478   17.6841 C   0  0  0  0  0  0  0  0  0  0  0  0
   -7.1075   27.5382   17.0622 C   0  0  0  0  0  0  0  0  0  0  0  0
   -6.1511   26.5452   17.2638 C   0  0  0  0  0  0  0  0  0  0  0  0
   -4.8670   26.6671   16.7387 C   0  0  0  0  0  0  0  0  0  0  0  0
   -3.8463   25.7771   16.9390 O   0  0  0  0  0  0  0  0  0  0  0  0
   -2.5113   26.2515   16.7671 C   0  0  0  0  0  0  0  0  0  0  0  0
   -4.5230   27.7863   15.9753 C   0  0  0  0  0  0  0  0  0  0  0  0
   -3.2774   27.9050   15.3870 O   0  0  0  0  0  0  0  0  0  0  0  0
   -2.1813   27.4321   16.1525 C   0  0  0  0  0  0  0  0  0  0  0  0
   -5.5014   28.7466   15.7215 C   0  0  0  0  0  0  0  0  0  0  0  0
   -5.0752   29.7935   14.9603 O   0  0  0  0  0  0  0  0  0  0  0  0
   -3.8698   29.6277   14.2160 C   0  0  0  0  0  0  0  0  0  0  0  0
   -6.7795   28.6207   16.2572 C   0  0  0  0  0  0  0  0  0  0  0  0
   -7.8004   27.7588   20.3153 H   0  0  0  0  0  0  0  0  0  0  0  0
   -8.5941   24.1814   22.8940 H   0  0  0  0  0  0  0  0  0  0  0  0
   -9.3592   23.0403   21.8839 H   0  0  0  0  0  0  0  0  0  0  0  0
  -10.0934   23.8633   17.5084 H   0  0  0  0  0  0  0  0  0  0  0  0
   -9.6588   25.3405   16.7759 H   0  0  0  0  0  0  0  0  0  0  0  0
   -8.7605   28.4324   18.0017 H   0  0  0  0  0  0  0  0  0  0  0  0
   -9.1038   27.0256   16.9182 H   0  0  0  0  0  0  0  0  0  0  0  0
   -6.3983   25.7059   17.8110 H   0  0  0  0  0  0  0  0  0  0  0  0
   -1.8226   25.4544   16.9543 H   0  0  0  0  0  0  0  0  0  0  0  0
   -2.3259   27.0515   17.4531 H   0  0  0  0  0  0  0  0  0  0  0  0
   -2.3844   26.6045   15.7650 H   0  0  0  0  0  0  0  0  0  0  0  0
   -1.2746   27.5734   15.6023 H   0  0  0  0  0  0  0  0  0  0  0  0
   -2.3139   26.3909   16.3601 H   0  0  0  0  0  0  0  0  0  0  0  0
   -2.1283   27.9753   17.0728 H   0  0  0  0  0  0  0  0  0  0  0  0
   -3.6613   30.5243   13.6705 H   0  0  0  0  0  0  0  0  0  0  0  0
   -3.9820   28.8122   13.5325 H   0  0  0  0  0  0  0  0  0  0  0  0
   -3.0618   29.4222   14.8868 H   0  0  0  0  0  0  0  0  0  0  0  0
   -7.4912   29.3399   16.0539 H   0  0  0  0  0  0  0  0  0  0  0  0
  1  2  4  0
  2  3  4  0
  3  4  1  0
  3  5  4  0
  5  6  4  0
  6  7  1  0
  1  8  4  0
  6  8  4  0
  8  9  1  0
  9 10  1  0
 10 11  4  0
 11 12  4  0
 12 13  1  0
 13 14  1  0
 12 15  4  0
 15 16  1  0
 16 17  1  0
 15 18  4  0
 18 19  1  0
 19 20  1  0
 10 21  4  0
 18 21  4  0
  1 22  1  0
  4 23  1  0
  4 24  1  0
  7 25  1  0
  7 26  1  0
  9 27  1  0
  9 28  1  0
 11 29  1  0
 14 30  1  0
 14 31  1  0
 14 32  1  0
 17 33  1  0
 17 34  1  0
 17 35  1  0
 20 36  1  0
 20 37  1  0
 20 38  1  0
 21 39  1  0
M  END
