8DSC_NCA_A_1001
     RDKit          3D

  9  9  0  0  0  0  0  0  0  0999 V2000
    9.9008    1.2587   20.6351 N   0  0  0  0  0  0  0  0  0  0  0  0
   10.9418    2.0387   20.3053 C   0  0  0  0  0  0  0  0  0  0  0  0
   11.9485    1.5803   19.4680 C   0  0  0  0  0  0  0  0  0  0  0  0
   11.8710    0.2699   18.9968 C   0  0  0  0  0  0  0  0  0  0  0  0
   10.7775   -0.5064   19.3439 C   0  0  0  0  0  0  0  0  0  0  0  0
    9.8146    0.0028   20.1767 C   0  0  0  0  0  0  0  0  0  0  0  0
   13.0835    2.5008   19.1164 C   0  0  0  0  0  0  0  0  0  0  0  0
   13.0410    3.6592   19.5690 O   0  0  0  0  0  0  0  0  0  0  0  0
   14.0597    2.0641   18.3482 N   0  0  0  0  0  0  0  0  0  0  0  0
  1  2  2  0
  2  3  1  0
  3  4  2  0
  4  5  1  0
  1  6  1  0
  5  6  2  0
  3  7  1  0
  7  8  2  0
  7  9  1  0
M  END
