
     RDKit          3D

 21 21  0  0  0  0  0  0  0  0999 V2000
   25.6704  -12.0789   57.7553 C   0  0  0  0  0  0  0  0  0  0  0  0
   24.8155  -11.3534   56.9082 C   0  0  0  0  0  0  0  0  0  0  0  0
   24.0410  -12.0964   56.0178 C   0  0  0  0  0  0  0  0  0  0  0  0
   24.0308  -13.4454   55.9422 N   0  0  0  0  0  0  0  0  0  0  0  0
   25.6822  -13.4841   57.6918 C   0  0  0  0  0  0  0  0  0  0  0  0
   28.2888   -8.5489   56.6916 O   0  0  0  0  0  0  0  0  0  0  0  0
   26.7699   -8.3124   57.1248 P   0  0  0  0  0  5  0  0  0  0  0  0
   26.4369   -6.8829   56.4927 O   0  0  0  0  0  0  0  0  0  0  0  0
   26.5786   -8.3239   58.5999 O   0  0  0  0  0  0  0  0  0  0  0  0
   25.8915   -9.3432   56.2804 O   0  0  0  0  0  0  0  0  0  0  0  0
   24.7116   -9.8565   56.8593 C   0  0  0  0  0  0  0  0  0  0  0  0
   24.8493  -14.1283   56.7788 C   0  0  0  0  0  0  0  0  0  0  0  0
   24.8247  -15.6252   56.6741 C   0  0  0  0  0  0  0  0  0  0  0  0
   26.4834  -14.2530   58.4975 O   0  0  0  0  0  0  0  0  0  0  0  0
   26.5531  -11.3826   58.7255 C   0  0  0  0  0  0  0  0  0  0  0  0
   26.7245  -11.8383   59.9268 N   0  0  0  0  0  0  0  0  0  0  0  0
   27.6033  -10.9800   60.7381 C   0  0  0  0  0  0  0  0  0  0  0  0
   29.0370  -11.0924   60.2229 C   0  0  0  0  0  0  0  0  0  0  0  0
   30.0850  -11.4742   61.2702 C   0  0  0  0  0  0  0  0  0  0  0  0
   31.7953  -11.1252   60.7388 S   0  0  0  0  0  0  0  0  0  0  0  0
   31.7187  -11.7921   59.0583 C   0  0  0  0  0  0  0  0  0  0  0  0
  1  2  4  0
  2  3  4  0
  3  4  4  0
  1  5  4  0
  6  7  1  0
  7  8  1  0
  7  9  2  0
  7 10  1  0
  2 11  1  0
 10 11  1  0
  5 12  4  0
  4 12  4  0
 12 13  1  0
  5 14  1  0
  1 15  1  0
 15 16  2  0
 16 17  1  0
 17 18  1  0
 18 19  1  0
 19 20  1  0
 20 21  1  0
M  END
