7N4W_P4V_A_203
     RDKit          3D

 26 29  0  0  0  0  0  0  0  0999 V2000
  -11.0390   -3.3966   13.6760 C   0  0  0  0  0  0  0  0  0  0  0  0
  -13.3030   -4.2245   14.0083 C   0  0  0  0  0  0  0  0  0  0  0  0
  -10.5938   -1.5556   12.2954 O   0  0  0  0  0  0  0  0  0  0  0  0
   -9.5538  -10.4760   16.3331 C   0  0  0  0  0  0  0  0  0  0  0  0
   -9.4018   -9.8134   17.5624 O   0  0  0  0  0  0  0  0  0  0  0  0
   -9.1946   -8.4385   17.4919 C   0  0  0  0  0  0  0  0  0  0  0  0
   -9.6464   -7.7539   16.3930 C   0  0  0  0  0  0  0  0  0  0  0  0
   -8.7549   -7.8459   18.6749 C   0  0  0  0  0  0  0  0  0  0  0  0
   -8.3687   -8.6342   19.7382 O   0  0  0  0  0  0  0  0  0  0  0  0
   -7.6083   -8.0381   20.8072 C   0  0  0  0  0  0  0  0  0  0  0  0
   -8.6455   -6.4004   18.7349 C   0  0  0  0  0  0  0  0  0  0  0  0
   -9.0338   -5.7395   17.6083 C   0  0  0  0  0  0  0  0  0  0  0  0
   -8.8825   -4.2130   17.6530 C   0  0  0  0  0  0  0  0  0  0  0  0
   -9.5225   -3.4883   16.4436 C   0  0  0  0  0  0  0  0  0  0  0  0
   -9.1780   -4.2281   15.1406 N   0  0  0  0  0  0  0  0  0  0  0  0
   -9.5518   -3.6150   13.8628 C   0  0  0  0  0  0  0  0  0  0  0  0
   -9.9635   -5.4625   15.2953 C   0  0  1  0  0  0  0  0  0  0  0  0
   -9.5020   -6.3071   16.3991 C   0  0  0  0  0  0  0  0  0  0  0  0
  -11.4492   -5.5087   15.1018 C   0  0  0  0  0  0  0  0  0  0  0  0
  -11.9201   -4.3797   14.2266 C   0  0  0  0  0  0  0  0  0  0  0  0
  -13.8106   -3.1912   13.2455 C   0  0  0  0  0  0  0  0  0  0  0  0
  -12.9113   -2.2653   12.6699 C   0  0  0  0  0  0  0  0  0  0  0  0
  -13.3360   -1.1654   11.9042 O   0  0  0  0  0  0  0  0  0  0  0  0
  -14.7636   -0.9791   11.6033 C   0  0  0  0  0  0  0  0  0  0  0  0
  -11.4978   -2.4388   12.8699 C   0  0  0  0  0  0  0  0  0  0  0  0
  -10.4767   -0.2452   12.8274 C   0  0  0  0  0  0  0  0  0  0  0  0
  4  5  1  0
  5  6  1  0
  6  7  1  0
  6  8  2  0
  8  9  1  0
  9 10  1  0
  8 11  1  0
 11 12  2  0
 12 13  1  0
 13 14  1  0
 14 15  1  0
 15 16  1  0
  1 16  1  0
 15 17  1  0
  7 18  2  0
 12 18  1  0
 17 18  1  0
 17 19  1  1
 19 20  1  0
  2 20  2  0
  1 20  1  0
  2 21  1  0
 21 22  2  0
 22 23  1  0
 23 24  1  0
  1 25  2  0
 22 25  1  0
  3 25  1  0
  3 26  1  0
M  END
