7ZYS_KNR_B_201
     RDKit          3D

 44 45  0  0  0  0  0  0  0  0999 V2000
    1.3250  -10.1479    1.7643 N   0  0  0  0  0  0  0  0  0  0  0  0
   -3.1202  -11.4492   -1.2261 C   0  0  0  0  0  0  0  0  0  0  0  0
   -3.6272  -12.3490   -2.2489 C   0  0  2  0  0  0  0  0  0  0  0  0
    1.1297  -11.0737    3.9463 N   0  0  0  0  0  0  0  0  0  0  0  0
   -4.5265  -13.4440   -1.8805 C   0  0  0  0  0  0  0  0  0  0  0  0
    4.5839   -9.8746    1.2743 O   0  0  0  0  0  0  0  0  0  0  0  0
    2.4402  -12.8068    0.9815 C   0  0  1  0  0  0  0  0  0  0  0  0
   -1.1820  -13.4755    1.3094 C   0  0  0  0  0  0  0  0  0  0  0  0
   -1.3859  -12.8901   -0.0701 C   0  0  0  0  0  0  0  0  0  0  0  0
   -2.4195  -11.8942   -0.0617 N   0  0  0  0  0  0  0  0  0  0  0  0
    0.1883  -13.0976    1.8743 C   0  0  0  0  0  0  0  0  0  0  0  0
   -3.2647  -10.1687   -1.2917 O   0  0  0  0  0  0  0  0  0  0  0  0
    1.3005  -13.8059    1.1466 C   0  0  0  0  0  0  0  0  0  0  0  0
   -0.2886  -12.6385   -3.3986 O   0  0  0  0  0  0  0  0  0  0  0  0
    1.6392  -11.0595    2.6144 C   0  0  0  0  0  0  0  0  0  0  0  0
   -2.4995  -12.9537   -2.9511 N   0  0  0  0  0  0  0  0  0  0  0  0
    2.5199  -12.1047    2.2473 N   0  0  0  0  0  0  0  0  0  0  0  0
    3.6888  -13.5229    0.6249 C   0  0  0  0  0  0  0  0  0  0  0  0
    3.5372  -14.5255   -0.1646 O   0  0  0  0  0  0  0  0  0  0  0  0
   -5.5274  -13.9833   -2.7959 C   0  0  0  0  0  0  0  0  0  0  0  0
   -6.3581  -15.0631   -2.1761 C   0  0  0  0  0  0  0  0  0  0  0  0
   -7.0202  -15.9473   -3.2163 C   0  0  0  0  0  0  0  0  0  0  0  0
   -1.4757  -12.2198   -3.6034 C   0  0  0  0  0  0  0  0  0  0  0  0
   -1.7529  -11.0336   -4.4748 C   0  0  2  0  0  0  0  0  0  0  0  0
   -2.5319  -11.4127   -5.6761 C   0  0  0  0  0  0  0  0  0  0  0  0
   -3.2747  -10.3056   -6.3682 C   0  0  0  0  0  0  0  0  0  0  0  0
   -2.2003   -9.4482   -7.0511 C   0  0  0  0  0  0  0  0  0  0  0  0
   -2.5838   -9.1045   -8.4650 C   0  0  0  0  0  0  0  0  0  0  0  0
    0.4697  -10.3616   -5.5744 C   0  0  0  0  0  0  0  0  0  0  0  0
    1.4261  -11.4795   -5.7848 C   0  0  0  0  0  0  0  0  0  0  0  0
    2.7226  -11.4028   -5.0964 C   0  0  0  0  0  0  0  0  0  0  0  0
    3.0234  -11.4765   -3.7349 C   0  0  0  0  0  0  0  0  0  0  0  0
    4.3533  -11.3666   -3.2857 C   0  0  0  0  0  0  0  0  0  0  0  0
    4.9023  -11.4072   -1.9406 C   0  0  0  0  0  0  0  0  0  0  0  0
    4.8818  -10.8291    0.4694 C   0  0  0  0  0  0  0  0  0  0  0  0
    5.6722  -11.9606    0.9529 C   0  0  0  0  0  0  0  0  0  0  0  0
    5.3717  -11.1788   -4.2805 C   0  0  0  0  0  0  0  0  0  0  0  0
    5.0954  -11.1061   -5.6056 C   0  0  0  0  0  0  0  0  0  0  0  0
    3.8039  -11.2141   -6.0140 C   0  0  0  0  0  0  0  0  0  0  0  0
   -1.9791   -7.8116   -8.7575 N   0  0  0  0  0  0  0  0  0  0  0  0
   -0.5540  -10.2892   -4.6294 N   0  0  0  0  0  0  0  0  0  0  0  0
    4.3914  -10.6717   -0.8518 N   0  0  0  0  0  0  0  0  0  0  0  0
    4.9795  -13.2195    1.0540 N   0  0  0  0  0  0  0  0  0  0  0  0
    0.5885   -9.3244   -6.3476 O   0  0  0  0  0  0  0  0  0  0  0  0
  2  3  1  0
  3  5  1  1
  8  9  1  0
  2 10  1  0
  9 10  1  0
  8 11  1  0
  2 12  2  0
  7 13  1  0
 11 13  1  0
  1 15  2  0
  4 15  1  0
  3 16  1  0
  7 17  1  1
 15 17  1  0
  7 18  1  0
 18 19  2  0
  5 20  1  0
 20 21  1  0
 21 22  1  0
 16 23  1  0
 14 23  2  0
 23 24  1  0
 24 25  1  6
 25 26  1  0
 26 27  1  0
 27 28  1  0
 29 30  1  0
 30 31  1  0
 31 32  2  0
 32 33  1  0
 33 34  1  0
  6 35  2  0
 35 36  1  0
 33 37  2  0
 37 38  1  0
 31 39  1  0
 38 39  2  0
 28 40  1  0
 29 41  1  0
 24 41  1  0
 34 42  1  0
 35 42  1  0
 36 43  1  0
 18 43  1  0
 29 44  2  0
M  END
$$$$
