7TXP_0FX_A_301
     RDKit          3D

 62 64  0  0  0  0  0  0  0  0999 V2000
   -6.7187   -1.9873    7.2011 O   0  0  0  0  0  0  0  0  0  0  0  0
   -5.7538   -1.8722    8.5872 P   0  0  2  0  0  5  0  0  0  0  0  0
   -5.1121   -0.5030    8.6303 O   0  0  0  0  0  0  0  0  0  0  0  0
   -4.5485   -3.0842    8.5444 O   0  0  0  0  0  0  0  0  0  0  0  0
   -5.0016   -4.2387    9.2180 C   0  0  1  0  0  0  0  0  0  0  0  0
   -4.0824   -4.5038   10.4366 C   0  0  1  0  0  0  0  0  0  0  0  0
   -3.6209   -3.3035   11.0079 O   0  0  0  0  0  0  0  0  0  0  0  0
   -4.7832   -5.3740   11.5129 C   0  0  2  0  0  0  0  0  0  0  0  0
   -3.8539   -6.2450   12.1050 O   0  0  0  0  0  0  0  0  0  0  0  0
   -5.9308   -6.1869   10.8826 C   0  0  1  0  0  0  0  0  0  0  0  0
   -6.6380   -6.9912   11.8845 N   0  0  0  0  0  0  0  0  0  0  0  0
   -6.9265   -5.2234   10.1655 C   0  0  2  0  0  0  0  0  0  0  0  0
   -7.7069   -5.9352    9.0563 C   0  0  0  0  0  0  0  0  0  0  0  0
   -6.3320   -4.0311    9.6571 O   0  0  0  0  0  0  0  0  0  0  0  0
   -6.7478   -2.0564    9.9570 O   0  0  0  0  0  0  0  0  0  0  0  0
   -6.2521   -3.4691   10.7686 P   0  0  1  0  0  5  0  0  0  0  0  0
   -7.1112   -4.7782   10.1284 O   0  0  0  0  0  0  0  0  0  0  0  0
   -4.7754   -3.6924   10.5105 O   0  0  0  0  0  0  0  0  0  0  0  0
   -6.6104   -3.3674   12.4421 O   0  0  0  0  0  0  0  0  0  0  0  0
   -5.4084   -3.3787   13.1769 C   0  0  0  0  0  0  0  0  0  0  0  0
   -4.2136   -3.4955   12.2237 C   0  0  2  0  0  0  0  0  0  0  0  0
   -4.5532   -4.3223   11.1287 O   0  0  0  0  0  0  0  0  0  0  0  0
   -2.9874   -4.0887   12.9409 C   0  0  2  0  0  0  0  0  0  0  0  0
   -1.8620   -3.2507   12.8175 O   0  0  0  0  0  0  0  0  0  0  0  0
   -2.7722   -5.4090   12.2455 C   0  0  0  0  0  0  0  0  0  0  0  0
   -3.4708   -5.2026   10.9128 C   0  0  1  0  0  0  0  0  0  0  0  0
   -3.9092   -6.4905   10.3246 N   0  0  0  0  0  4  0  0  0  0  0  0
   -3.5344   -7.6857   10.8811 C   0  0  0  0  0  0  0  0  0  0  0  0
   -3.9912   -8.8996   10.3553 C   0  0  0  0  0  0  0  0  0  0  0  0
   -3.6647  -10.2046   11.0282 C   0  0  0  0  0  0  0  0  0  0  0  0
   -4.7285   -6.4919    9.2219 C   0  0  0  0  0  0  0  0  0  0  0  0
   -5.1015   -5.4054    8.6990 O   0  0  0  0  0  0  0  0  0  0  0  0
   -5.1565   -7.6649    8.6815 N   0  0  0  0  0  4  0  0  0  0  0  0
   -4.8145   -8.8601    9.2261 C   0  0  0  0  0  0  0  0  0  0  0  0
   -5.2491   -9.9275    8.7135 O   0  0  0  0  0  0  0  0  0  0  0  0
   -7.4060   -1.2831    7.3121 H   0  0  0  0  0  0  0  0  0  0  0  0
   -4.9386   -5.1397    8.5627 H   0  0  0  0  0  0  0  0  0  0  0  0
   -3.1940   -5.0520   10.0555 H   0  0  0  0  0  0  0  0  0  0  0  0
   -4.4176   -2.7671   11.2610 H   0  0  0  0  0  0  0  0  0  0  0  0
   -5.2260   -4.7163   12.2982 H   0  0  0  0  0  0  0  0  0  0  0  0
   -3.2680   -5.6872   12.6810 H   0  0  0  0  0  0  0  0  0  0  0  0
   -5.4853   -6.8802   10.1344 H   0  0  0  0  0  0  0  0  0  0  0  0
   -5.9887   -7.7251   12.2495 H   0  0  0  0  0  0  0  0  0  0  0  0
   -6.9111   -6.3848   12.6923 H   0  0  0  0  0  0  0  0  0  0  0  0
   -7.6751   -4.8936   10.9189 H   0  0  0  0  0  0  0  0  0  0  0  0
   -7.0271   -6.2683    8.2458 H   0  0  0  0  0  0  0  0  0  0  0  0
   -8.4587   -5.2422    8.6227 H   0  0  0  0  0  0  0  0  0  0  0  0
   -8.2383   -6.8197    9.4674 H   0  0  0  0  0  0  0  0  0  0  0  0
   -6.9495   -4.7338    9.1523 H   0  0  0  0  0  0  0  0  0  0  0  0
   -5.2880   -2.4346   13.7576 H   0  0  0  0  0  0  0  0  0  0  0  0
   -5.3958   -4.2493   13.8687 H   0  0  0  0  0  0  0  0  0  0  0  0
   -3.9833   -2.4775   11.8367 H   0  0  0  0  0  0  0  0  0  0  0  0
   -3.1696   -4.2639   14.0250 H   0  0  0  0  0  0  0  0  0  0  0  0
   -1.6735   -3.1242   11.8503 H   0  0  0  0  0  0  0  0  0  0  0  0
   -1.6936   -5.6478   12.1217 H   0  0  0  0  0  0  0  0  0  0  0  0
   -3.2689   -6.2220   12.8189 H   0  0  0  0  0  0  0  0  0  0  0  0
   -2.7686   -4.7053   10.2042 H   0  0  0  0  0  0  0  0  0  0  0  0
   -2.8928   -7.7115   11.7509 H   0  0  0  0  0  0  0  0  0  0  0  0
   -3.2399  -10.9174   10.2914 H   0  0  0  0  0  0  0  0  0  0  0  0
   -2.9336  -10.0696   11.8519 H   0  0  0  0  0  0  0  0  0  0  0  0
   -4.5917  -10.6405   11.4560 H   0  0  0  0  0  0  0  0  0  0  0  0
   -5.7760   -7.6452    7.8387 H   0  0  0  0  0  0  0  0  0  0  0  0
  2  1  1  1
  2  3  2  0
  2  4  1  0
  5  4  1  0
  5  6  1  0
  6  7  1  0
  6  8  1  0
  8  9  1  0
  8 10  1  0
 10 11  1  0
 10 12  1  0
 12 13  1  0
 12 14  1  0
  5 14  1  0
  2 15  1  0
 16 15  1  1
 16 17  1  0
 16 18  2  0
 16 19  1  0
 19 20  1  0
 21 20  1  0
 21 22  1  0
 21 23  1  0
 23 24  1  0
 23 25  1  0
 25 26  1  0
 22 26  1  0
 26 27  1  0
 27 28  4  0
 28 29  4  0
 29 30  1  0
 27 31  4  0
 31 32  2  0
 31 33  4  0
 33 34  4  0
 29 34  4  0
 34 35  2  0
  1 36  1  0
  5 37  1  1
  6 38  1  1
  7 39  1  0
  8 40  1  6
  9 41  1  0
 10 42  1  1
 11 43  1  0
 11 44  1  0
 12 45  1  6
 13 46  1  0
 13 47  1  0
 13 48  1  0
 17 49  1  0
 20 50  1  0
 20 51  1  0
 21 52  1  1
 23 53  1  6
 24 54  1  0
 25 55  1  0
 25 56  1  0
 26 57  1  1
 28 58  1  0
 30 59  1  0
 30 60  1  0
 30 61  1  0
 33 62  1  0
M  CHG  2  27   1  33   1
M  END
