1HNN_SKF_A_3001
     RDKit          3D

 14 15  0  0  0  0  0  0  0  0999 V2000
   17.8876   33.9323   20.5152 C   0  0  0  0  0  0  0  0  0  0  0  0
   19.2032   33.8577   20.0775 C   0  0  0  0  0  0  0  0  0  0  0  0
   19.4837   33.9728   18.7114 C   0  0  0  0  0  0  0  0  0  0  0  0
   18.4506   34.1604   17.8019 C   0  0  0  0  0  0  0  0  0  0  0  0
   21.1493   33.8723   18.1389 S   0  0  2  0  0  0  0  0  0  0  0  0
   17.1414   34.2320   18.2387 C   0  0  0  0  0  0  0  0  0  0  0  0
   16.8551   34.1187   19.6037 C   0  0  0  0  0  0  0  0  0  0  0  0
   22.0077   33.2845   19.1445 O   0  0  0  0  0  0  0  0  0  0  0  0
   21.6834   35.1552   17.7606 O   0  0  0  0  0  0  0  0  0  0  0  0
   21.1387   32.9410   16.8670 N   0  0  0  0  0  0  0  0  0  0  0  0
   16.0409   34.5149   17.2475 C   0  0  0  0  0  0  0  0  0  0  0  0
   14.5110   34.7377   19.1950 C   0  0  0  0  0  0  0  0  0  0  0  0
   15.4394   33.8865   20.0336 C   0  0  0  0  0  0  0  0  0  0  0  0
   14.6826   34.2787   17.7901 N   0  0  0  0  0  0  0  0  0  0  0  0
  1  2  2  0
  2  3  1  0
  3  4  2  0
  3  5  1  0
  4  6  1  0
  1  7  1  0
  6  7  2  0
  5  8  2  0
  5  9  2  0
  5 10  1  6
  6 11  1  0
  7 13  1  0
 12 13  1  0
 11 14  1  0
 12 14  1  0
M  END
