7UAW_MF6_B_201
     RDKit          3D

 56 60  0  0  0  0  0  0  0  0999 V2000
  -16.5398   12.2800  -24.4332 C   0  0  2  0  0  0  0  0  0  0  0  0
  -17.4747   11.0848  -20.1438 C   0  0  1  0  0  0  0  0  0  0  0  0
  -15.6829   10.1966  -18.5647 C   0  0  2  0  0  0  0  0  0  0  0  0
  -21.9259    6.0220  -21.1969 C   0  0  0  0  0  0  0  0  0  0  0  0
  -21.1833    6.8701  -23.3033 C   0  0  0  0  0  0  0  0  0  0  0  0
  -20.0101    7.4139  -21.3607 C   0  0  0  0  0  0  0  0  0  0  0  0
  -20.8638    6.6929  -20.6004 C   0  0  0  0  0  0  0  0  0  0  0  0
  -19.4049    7.5537  -19.3326 C   0  0  0  0  0  0  0  0  0  0  0  0
  -17.9954    8.8717  -20.9865 C   0  0  2  0  0  0  0  0  0  0  0  0
  -18.4980   10.3349  -20.9781 C   0  0  2  0  0  0  0  0  0  0  0  0
  -17.9367   10.6633  -23.3305 C   0  0  2  0  0  0  0  0  0  0  0  0
  -15.7700   11.0847  -23.8853 C   0  0  1  0  0  0  0  0  0  0  0  0
  -17.9871   11.8252  -24.3358 C   0  0  2  0  0  0  0  0  0  0  0  0
  -16.3615   10.0554  -19.9377 C   0  0  1  0  0  0  0  0  0  0  0  0
  -14.4488   11.4722  -23.2166 C   0  0  1  0  0  0  0  0  0  0  0  0
  -22.8509    5.2488  -20.4322 N   0  0  0  0  0  0  0  0  0  0  0  0
  -22.0620    6.1294  -22.5524 N   0  0  0  0  0  0  0  0  0  0  0  0
  -20.1408    7.5237  -22.7058 N   0  0  0  0  0  0  0  0  0  0  0  0
  -20.5090    6.7565  -19.3033 N   0  0  0  0  0  0  0  0  0  0  0  0
  -19.0697    7.9620  -20.5842 N   0  0  0  0  0  0  0  0  0  0  0  0
  -18.7886   10.9637  -22.2315 O   0  0  0  0  0  0  0  0  0  0  0  0
  -16.5951   10.4676  -22.9348 O   0  0  0  0  0  0  0  0  0  0  0  0
  -16.1458   12.6394  -25.7381 O   0  0  0  0  0  0  0  0  0  0  0  0
  -18.4717   11.3803  -25.5770 O   0  0  0  0  0  0  0  0  0  0  0  0
  -17.0007   12.2343  -20.7984 O   0  0  0  0  0  0  0  0  0  0  0  0
  -14.3585    9.6974  -18.6106 O   0  0  0  0  0  0  0  0  0  0  0  0
  -13.5616   12.1681  -17.5943 O   0  0  0  0  0  0  0  0  0  0  0  0
  -13.4020   11.7244  -20.3110 O   0  0  0  0  0  0  0  0  0  0  0  0
  -11.4658   11.5959  -22.2842 O   0  0  0  0  0  0  0  0  0  0  0  0
  -13.8764   10.3030  -22.6738 O   0  0  0  0  0  0  0  0  0  0  0  0
  -12.1165    9.4415  -20.9701 O   0  0  0  0  0  0  0  0  0  0  0  0
  -11.8415   10.4867  -18.5521 O   0  0  0  0  0  0  0  0  0  0  0  0
  -16.9170    8.7664  -20.0788 O   0  0  0  0  0  0  0  0  0  0  0  0
  -13.2509   10.9930  -18.7755 P   0  0  2  0  0  5  0  0  0  0  0  0
  -12.6995   10.7276  -21.5181 P   0  0  2  0  0  5  0  0  0  0  0  0
  -16.4014   13.1603  -23.7655 H   0  0  0  0  0  0  0  0  0  0  0  0
  -17.9403   11.3680  -19.1689 H   0  0  0  0  0  0  0  0  0  0  0  0
  -16.2521    9.5928  -17.8253 H   0  0  0  0  0  0  0  0  0  0  0  0
  -15.7564   11.2432  -18.1913 H   0  0  0  0  0  0  0  0  0  0  0  0
  -21.3167    6.9385  -24.3737 H   0  0  0  0  0  0  0  0  0  0  0  0
  -18.8602    7.8403  -18.4430 H   0  0  0  0  0  0  0  0  0  0  0  0
  -17.6278    8.5325  -21.9739 H   0  0  0  0  0  0  0  0  0  0  0  0
  -19.4525   10.3646  -20.4040 H   0  0  0  0  0  0  0  0  0  0  0  0
  -18.3038    9.7331  -23.8179 H   0  0  0  0  0  0  0  0  0  0  0  0
  -15.5574   10.3485  -24.6941 H   0  0  0  0  0  0  0  0  0  0  0  0
  -18.6154   12.6687  -23.9628 H   0  0  0  0  0  0  0  0  0  0  0  0
  -15.5879   10.1872  -20.7179 H   0  0  0  0  0  0  0  0  0  0  0  0
  -13.7632   11.9074  -23.9767 H   0  0  0  0  0  0  0  0  0  0  0  0
  -14.6685   12.2358  -22.4348 H   0  0  0  0  0  0  0  0  0  0  0  0
  -22.8431    5.2795  -19.3879 H   0  0  0  0  0  0  0  0  0  0  0  0
  -23.5375    4.6256  -20.9128 H   0  0  0  0  0  0  0  0  0  0  0  0
  -16.5786   12.0203  -26.3804 H   0  0  0  0  0  0  0  0  0  0  0  0
  -19.3560   10.9626  -25.4008 H   0  0  0  0  0  0  0  0  0  0  0  0
  -16.1786   12.5143  -20.3184 H   0  0  0  0  0  0  0  0  0  0  0  0
  -14.1205   11.7072  -16.9195 H   0  0  0  0  0  0  0  0  0  0  0  0
  -10.8714   11.8902  -21.5490 H   0  0  0  0  0  0  0  0  0  0  0  0
  6  7  1  0
  4  7  2  0
  2 10  1  0
  9 10  1  0
  1 12  1  0
 11 13  1  0
  1 13  1  0
  2 14  1  0
 14  3  1  0
 12 15  1  0
  4 16  1  0
  4 17  1  0
  5 17  2  0
  6 18  2  0
  5 18  1  0
  8 19  2  0
  7 19  1  0
  9 20  1  0
  8 20  1  0
  6 20  1  0
 10 21  1  0
 11 21  1  0
 11 22  1  0
 12 22  1  0
  1 23  1  0
 13 24  1  0
  2 25  1  0
  3 26  1  0
 15 30  1  0
 14 33  1  0
  9 33  1  0
 26 34  1  0
 32 34  2  0
 28 34  1  0
 34 27  1  1
 28 35  1  0
 30 35  1  0
 31 35  2  0
 35 29  1  6
  1 36  1  1
  2 37  1  1
  3 38  1  1
  3 39  1  0
  5 40  1  0
  8 41  1  0
  9 42  1  6
 10 43  1  1
 11 44  1  6
 12 45  1  6
 13 46  1  1
 14 47  1  6
 15 48  1  6
 15 49  1  0
 16 50  1  0
 16 51  1  0
 23 52  1  0
 24 53  1  0
 25 54  1  0
 27 55  1  0
 29 56  1  0
M  END
