7UJ5_DGL_D_301
     RDKit          3D

 19 18  0  0  0  0  0  0  0  0999 V2000
    4.2296   -0.9914    3.4650 N   0  0  0  0  0  0  0  0  0  0  0  0
    4.2600   -1.0222    2.0012 C   0  0  1  0  0  0  0  0  0  0  0  0
    3.2093   -0.0933    1.4591 C   0  0  0  0  0  0  0  0  0  0  0  0
    2.0805   -0.0144    2.0151 O   0  0  0  0  0  0  0  0  0  0  0  0
    5.6640   -0.6591    1.4703 C   0  0  0  0  0  0  0  0  0  0  0  0
    5.6071    0.3999    0.3611 C   0  0  0  0  0  0  0  0  0  0  0  0
    4.2922    1.1129    0.3864 C   0  0  0  0  0  0  0  0  0  0  0  0
    3.2173    0.4557    0.4115 O   0  0  0  0  0  0  0  0  0  0  0  0
    4.2570    2.5029    0.3376 O   0  0  0  0  0  0  0  0  0  0  0  0
    3.4900    0.6944    0.3469 O   0  0  0  0  0  0  0  0  0  0  0  0
    4.6063   -0.0752    3.8034 H   0  0  0  0  0  0  0  0  0  0  0  0
    4.8633   -1.7402    3.8286 H   0  0  0  0  0  0  0  0  0  0  0  0
    4.0134   -2.0575    1.6742 H   0  0  0  0  0  0  0  0  0  0  0  0
    6.3008   -0.2916    2.3059 H   0  0  0  0  0  0  0  0  0  0  0  0
    6.1396   -1.5773    1.0593 H   0  0  0  0  0  0  0  0  0  0  0  0
    6.4292    1.1360    0.4977 H   0  0  0  0  0  0  0  0  0  0  0  0
    5.7338   -0.0802   -0.6327 H   0  0  0  0  0  0  0  0  0  0  0  0
    3.3745    3.0004    0.3376 H   0  0  0  0  0  0  0  0  0  0  0  0
    2.7963    1.3310   -0.0272 H   0  0  0  0  0  0  0  0  0  0  0  0
  2  1  1  0
  2  3  1  0
  3  4  2  0
  2  5  1  0
  5  6  1  0
  6  7  1  0
  7  8  2  0
  7  9  1  0
  3 10  1  0
  1 11  1  0
  1 12  1  0
  2 13  1  1
  5 14  1  0
  5 15  1  0
  6 16  1  0
  6 17  1  0
  9 18  1  0
 10 19  1  0
M  END
