
     RDKit          3D

 21 24  0  0  0  0  0  0  0  0999 V2000
   40.4735    3.9947   35.1782 C   0  0  0  0  0  0  0  0  0  0  0  0
   39.8025    5.3085   34.9611 C   0  0  0  0  0  0  0  0  0  0  0  0
   41.1470    4.0929   36.4018 C   0  0  0  0  0  0  0  0  0  0  0  0
   41.0140    5.3566   36.9550 N   0  0  0  0  0  0  0  0  0  0  0  0
   41.9121    3.0458   36.8796 C   0  0  0  0  0  0  0  0  0  0  0  0
   41.9610    1.8653   36.1333 C   0  0  0  0  0  0  0  0  0  0  0  0
   41.2635    1.7567   34.9195 C   0  0  0  0  0  0  0  0  0  0  0  0
   40.5128    2.8299   34.4293 C   0  0  0  0  0  0  0  0  0  0  0  0
   40.1027    6.1140   36.2295 C   0  0  0  0  0  0  0  0  0  0  0  0
   39.5775    7.2937   36.6079 C   0  0  0  0  0  0  0  0  0  0  0  0
   40.0462    7.8751   37.9269 C   0  0  0  0  0  0  0  0  0  0  0  0
   39.4138    9.0957   38.0417 N   0  0  0  0  0  0  0  0  0  0  0  0
   38.5673    9.3259   36.9654 C   0  0  0  0  0  0  0  0  0  0  0  0
   38.6065    8.2563   36.0571 C   0  0  0  0  0  0  0  0  0  0  0  0
   37.7658   10.4410   36.8009 C   0  0  0  0  0  0  0  0  0  0  0  0
   36.9534   10.4853   35.6710 C   0  0  0  0  0  0  0  0  0  0  0  0
   36.9590    9.4234   34.7545 C   0  0  0  0  0  0  0  0  0  0  0  0
   37.7822    8.3034   34.9478 C   0  0  0  0  0  0  0  0  0  0  0  0
   40.8061    7.3755   38.7384 O   0  0  0  0  0  0  0  0  0  0  0  0
   39.1369    5.7323   33.9362 N   0  0  0  0  0  0  0  0  0  0  0  0
   39.0419    4.7989   32.9058 O   0  0  0  0  0  0  0  0  0  0  0  0
  1  2  1  0
  1  3  4  0
  3  4  1  0
  3  5  4  0
  5  6  4  0
  6  7  4  0
  1  8  4  0
  7  8  4  0
  2  9  1  0
  4  9  1  0
  9 10  2  0
 10 11  1  0
 11 12  1  0
 12 13  1  0
 10 14  1  0
 13 14  4  0
 13 15  4  0
 15 16  4  0
 16 17  4  0
 14 18  4  0
 17 18  4  0
 11 19  2  0
  2 20  2  0
 20 21  1  0
M  END
