7EBG_J0L_A_502
     RDKit          3D

 28 29  0  0  0  0  0  0  0  0999 V2000
   -0.6229    1.9590    0.8136 C   0  0  0  0  0  0  0  0  0  0  0  0
   -0.4818    2.9868    1.7637 C   0  0  0  0  0  0  0  0  0  0  0  0
    0.7242    3.1550    2.4558 C   0  0  0  0  0  0  0  0  0  0  0  0
    0.4476    1.0761    0.5381 C   0  0  0  0  0  0  0  0  0  0  0  0
    1.6456    1.2700    1.2487 C   0  0  0  0  0  0  0  0  0  0  0  0
    1.7796    2.2831    2.1829 C   0  0  0  0  0  0  0  0  0  0  0  0
    3.1550    2.2714    2.7967 C   0  0  1  0  0  0  0  0  0  0  0  0
    3.7477    1.1009    2.0565 C   0  0  0  0  0  0  0  0  0  0  0  0
    3.9186    3.5656    2.4835 C   0  0  0  0  0  0  0  0  0  0  0  0
    3.0919    1.9954    4.3055 C   0  0  0  0  0  0  0  0  0  0  0  0
    0.9775   -1.2802   -0.2891 C   0  0  0  0  0  0  0  0  0  0  0  0
    0.3238    0.0167   -0.4314 N   0  0  0  0  0  0  0  0  0  0  0  0
    2.8393    0.5100    1.1350 N   0  0  0  0  0  0  0  0  0  0  0  0
    4.9218    0.6751    2.2219 O   0  0  0  0  0  0  0  0  0  0  0  0
   -1.5699    1.8626    0.3009 H   0  0  0  0  0  0  0  0  0  0  0  0
   -1.3112    3.6531    1.9620 H   0  0  0  0  0  0  0  0  0  0  0  0
    0.8325    3.9457    3.1866 H   0  0  0  0  0  0  0  0  0  0  0  0
    3.9475    3.7485    1.3871 H   0  0  0  0  0  0  0  0  0  0  0  0
    3.4262    4.4331    2.9726 H   0  0  0  0  0  0  0  0  0  0  0  0
    4.9628    3.4974    2.8570 H   0  0  0  0  0  0  0  0  0  0  0  0
    2.5830    2.8315    4.8310 H   0  0  0  0  0  0  0  0  0  0  0  0
    4.1169    1.8907    4.7214 H   0  0  0  0  0  0  0  0  0  0  0  0
    2.5308    1.0576    4.5096 H   0  0  0  0  0  0  0  0  0  0  0  0
    2.0789   -1.1464   -0.2483 H   0  0  0  0  0  0  0  0  0  0  0  0
    0.7318   -1.9243   -1.1599 H   0  0  0  0  0  0  0  0  0  0  0  0
    0.6221   -1.7835    0.6344 H   0  0  0  0  0  0  0  0  0  0  0  0
   -0.2571    0.1611   -1.2858 H   0  0  0  0  0  0  0  0  0  0  0  0
    3.0333   -0.3082    0.5176 H   0  0  0  0  0  0  0  0  0  0  0  0
  1  2  4  0
  2  3  4  0
  1  4  4  0
  4  5  4  0
  3  6  4  0
  5  6  4  0
  6  7  1  0
  7  8  1  0
  7  9  1  6
  7 10  1  0
 11 12  1  0
  4 12  1  0
  5 13  1  0
  8 13  1  0
  8 14  2  0
  1 15  1  0
  2 16  1  0
  3 17  1  0
  9 18  1  0
  9 19  1  0
  9 20  1  0
 10 21  1  0
 10 22  1  0
 10 23  1  0
 11 24  1  0
 11 25  1  0
 11 26  1  0
 12 27  1  0
 13 28  1  0
M  END
