
     RDKit          3D

 14 16  0  0  0  0  0  0  0  0999 V2000
  -10.6608   14.5890    9.7579 C   0  0  0  0  0  0  0  0  0  0  0  0
   -9.5164   14.2808    9.0179 C   0  0  0  0  0  0  0  0  0  0  0  0
   -8.2859   14.4667    9.6186 C   0  0  0  0  0  0  0  0  0  0  0  0
   -5.9582   14.6775   10.3748 C   0  0  0  0  0  0  0  0  0  0  0  0
   -6.1600   15.4318   12.3949 C   0  0  0  0  0  0  0  0  0  0  0  0
   -8.2075   14.9528   10.9372 C   0  0  0  0  0  0  0  0  0  0  0  0
   -4.7421   14.8094   10.8285 N   0  0  0  0  0  0  0  0  0  0  0  0
   -4.8708   15.2951   12.1294 N   0  0  0  0  0  0  0  0  0  0  0  0
  -10.5665   15.0755   11.0792 C   0  0  0  0  0  0  0  0  0  0  0  0
   -6.8731   15.0504   11.3079 N   0  0  0  0  0  0  0  0  0  0  0  0
   -9.9105   15.1503   13.9973 C   0  0  0  0  0  0  0  0  0  0  0  0
   -9.1259   15.7294   12.9602 O   0  0  0  0  0  0  0  0  0  0  0  0
   -9.3248   15.2667   11.6950 C   0  0  0  0  0  0  0  0  0  0  0  0
   -6.6708   14.1493    8.8916 S   0  0  0  0  0  0  0  0  0  0  0  0
  1  2  4  0
  2  3  4  0
  3  6  4  0
  4  7  4  0
  5  8  4  0
  7  8  4  0
  1  9  4  0
  5 10  4  0
  6 10  4  0
  4 10  4  0
 11 12  1  0
 12 13  1  0
  6 13  4  0
  9 13  4  0
  4 14  4  0
  3 14  4  0
M  END
