7KRU_ATP_A_607
     RDKit          3D

 31 33  0  0  0  0  0  0  0  0999 V2000
   49.1733   46.9748  199.6052 P   0  0  2  0  0  0  0  0  0  0  0  0
   50.1747   48.0325  199.2230 O   0  0  0  0  0  0  0  0  0  0  0  0
   47.7402   47.4485  199.6404 O   0  0  0  0  0  0  0  0  0  0  0  0
   49.5419   46.0986  200.7477 O   0  0  0  0  0  0  0  0  0  0  0  0
   49.7403   46.1742  196.8445 P   0  0  1  0  0  0  0  0  0  0  0  0
   49.0786   47.3986  196.2677 O   0  0  0  0  0  0  0  0  0  0  0  0
   51.2563   46.1017  196.7979 O   0  0  0  0  0  0  0  0  0  0  0  0
   49.2297   45.9052  198.3623 O   0  0  0  0  0  0  0  0  0  0  0  0
   49.9604   43.9990  195.0106 P   0  0  2  0  0  0  0  0  0  0  0  0
   51.2746   43.4919  195.5650 O   0  0  0  0  0  0  0  0  0  0  0  0
   49.9278   44.7941  193.7221 O   0  0  0  0  0  0  0  0  0  0  0  0
   49.1659   44.8192  196.1542 O   0  0  0  0  0  0  0  0  0  0  0  0
   48.9309   42.7719  194.8702 O   0  0  0  0  0  0  0  0  0  0  0  0
   48.6990   41.8783  195.9771 C   0  0  0  0  0  0  0  0  0  0  0  0
   47.7224   40.7712  195.5938 C   0  0  1  0  0  0  0  0  0  0  0  0
   47.5489   40.7938  194.1709 O   0  0  0  0  0  0  0  0  0  0  0  0
   48.2184   39.3772  195.9643 C   0  0  1  0  0  0  0  0  0  0  0  0
   47.1225   38.6174  196.4601 O   0  0  0  0  0  0  0  0  0  0  0  0
   48.7395   38.8161  194.6476 C   0  0  1  0  0  0  0  0  0  0  0  0
   48.6727   37.3903  194.5790 O   0  0  0  0  0  0  0  0  0  0  0  0
   47.8051   39.4918  193.6544 C   0  0  2  0  0  0  0  0  0  0  0  0
   48.3787   39.6816  192.3123 N   0  0  0  0  0  0  0  0  0  0  0  0
   49.5365   40.3046  191.9964 C   0  0  0  0  0  0  0  0  0  0  0  0
   49.7302   40.3080  190.6406 N   0  0  0  0  0  0  0  0  0  0  0  0
   48.6568   39.6728  190.1081 C   0  0  0  0  0  0  0  0  0  0  0  0
   48.2156   39.3274  188.7489 C   0  0  0  0  0  0  0  0  0  0  0  0
   48.9866   39.6774  187.6919 N   0  0  0  0  0  0  0  0  0  0  0  0
   47.0583   38.6654  188.6213 N   0  0  0  0  0  0  0  0  0  0  0  0
   46.3002   38.3187  189.6705 C   0  0  0  0  0  0  0  0  0  0  0  0
   46.6341   38.6094  190.9341 N   0  0  0  0  0  0  0  0  0  0  0  0
   47.7824   39.2622  191.2005 C   0  0  0  0  0  0  0  0  0  0  0  0
  1  2  2  0
  1  3  1  1
  1  4  1  0
  5  6  2  0
  5  7  1  1
  1  8  1  0
  5  8  1  0
  9 10  2  0
  9 11  1  6
  5 12  1  0
  9 12  1  0
  9 13  1  0
 13 14  1  0
 15 14  1  6
 15 16  1  0
 15 17  1  0
 17 18  1  6
 17 19  1  0
 19 20  1  1
 16 21  1  0
 19 21  1  0
 21 22  1  6
 22 23  1  0
 23 24  2  0
 24 25  1  0
 25 26  2  0
 26 27  1  0
 26 28  1  0
 28 29  2  0
 29 30  1  0
 22 31  1  0
 25 31  1  0
 30 31  2  0
M  END
