7K0V_VQP_A_801
     RDKit          3D

 59 61  0  0  0  0  0  0  0  0999 V2000
   25.6889   -1.1525  -33.6272 C   0  0  0  0  0  0  0  0  0  0  0  0
   24.9242   -0.0284  -33.2749 C   0  0  0  0  0  0  0  0  0  0  0  0
   24.3984    0.0658  -31.9805 C   0  0  0  0  0  0  0  0  0  0  0  0
   24.6541   -0.9299  -31.0220 C   0  0  0  0  0  0  0  0  0  0  0  0
   21.8432    0.0599  -29.9535 C   0  0  0  0  0  0  0  0  0  0  0  0
   22.2561    1.9252  -27.8923 C   0  0  0  0  0  0  0  0  0  0  0  0
   21.4964    4.6991  -25.4709 C   0  0  2  0  0  0  0  0  0  0  0  0
   26.0812    4.1952  -35.4587 C   0  0  1  0  0  0  0  0  0  0  0  0
   25.0756    4.1008  -37.8738 C   0  0  1  0  0  0  0  0  0  0  0  0
   25.7621   -3.1202  -30.3718 C   0  0  2  0  0  0  0  0  0  0  0  0
   20.8134    0.9210  -29.5760 C   0  0  0  0  0  0  0  0  0  0  0  0
   21.0136    1.8509  -28.5528 C   0  0  0  0  0  0  0  0  0  0  0  0
   23.2951    1.0475  -28.2763 C   0  0  0  0  0  0  0  0  0  0  0  0
   22.3997    2.8835  -26.8666 C   0  0  0  0  0  0  0  0  0  0  0  0
   20.1615    3.5936  -27.2028 C   0  0  0  0  0  0  0  0  0  0  0  0
   25.4516   -2.0414  -31.3736 C   0  0  0  0  0  0  0  0  0  0  0  0
   25.6503    1.7507  -34.9169 C   0  0  0  0  0  0  0  0  0  0  0  0
   26.1975    3.6460  -36.8926 C   0  0  1  0  0  0  0  0  0  0  0  0
   25.4957    5.3675  -38.6494 C   0  0  1  0  0  0  0  0  0  0  0  0
   25.9587   -2.1421  -32.6791 C   0  0  0  0  0  0  0  0  0  0  0  0
   24.8362    2.9635  -38.8896 C   0  0  1  0  0  0  0  0  0  0  0  0
   23.7546    4.3708  -37.1220 C   0  0  1  0  0  0  0  0  0  0  0  0
   23.0943    0.1227  -29.3170 C   0  0  0  0  0  0  0  0  0  0  0  0
   24.5055    1.0932  -27.6612 F   0  0  0  0  0  0  0  0  0  0  0  0
   26.1413   -1.3145  -34.8960 F   0  0  0  0  0  0  0  0  0  0  0  0
   21.3518    3.7062  -26.5432 N   0  0  0  0  0  0  0  0  0  0  0  0
   20.0044    2.6796  -28.1917 N   0  0  0  0  0  0  0  0  0  0  0  0
   24.6351    1.0081  -34.2261 N   0  0  0  0  0  0  0  0  0  0  0  0
   25.9482    3.0926  -34.5079 N   0  0  0  0  0  0  0  0  0  0  0  0
   24.1516   -0.7837  -29.6808 N   0  0  0  0  0  0  0  0  0  0  0  0
   23.4929    2.9866  -26.2425 O   0  0  0  0  0  0  0  0  0  0  0  0
   26.2990    1.2182  -35.8587 O   0  0  0  0  0  0  0  0  0  0  0  0
   23.8136    0.9365  -31.7103 H   0  0  0  0  0  0  0  0  0  0  0  0
   21.6571   -0.6686  -30.7320 H   0  0  0  0  0  0  0  0  0  0  0  0
   21.9949    5.6258  -25.8295 H   0  0  0  0  0  0  0  0  0  0  0  0
   22.1122    4.2794  -24.6470 H   0  0  0  0  0  0  0  0  0  0  0  0
   20.4951    4.9729  -25.0761 H   0  0  0  0  0  0  0  0  0  0  0  0
   26.9950    4.7703  -35.2011 H   0  0  0  0  0  0  0  0  0  0  0  0
   25.2067    4.8713  -35.3577 H   0  0  0  0  0  0  0  0  0  0  0  0
   26.5217   -2.7515  -29.6511 H   0  0  0  0  0  0  0  0  0  0  0  0
   26.1600   -4.0327  -30.8648 H   0  0  0  0  0  0  0  0  0  0  0  0
   24.8405   -3.4055  -29.8218 H   0  0  0  0  0  0  0  0  0  0  0  0
   19.8552    0.8591  -30.0774 H   0  0  0  0  0  0  0  0  0  0  0  0
   19.3248    4.2321  -26.9486 H   0  0  0  0  0  0  0  0  0  0  0  0
   27.1860    3.9555  -37.3005 H   0  0  0  0  0  0  0  0  0  0  0  0
   26.2038    2.5352  -36.8446 H   0  0  0  0  0  0  0  0  0  0  0  0
   24.6309    5.7877  -39.2072 H   0  0  0  0  0  0  0  0  0  0  0  0
   25.8616    6.1597  -37.9628 H   0  0  0  0  0  0  0  0  0  0  0  0
   26.2993    5.1310  -39.3799 H   0  0  0  0  0  0  0  0  0  0  0  0
   26.5573   -2.9968  -32.9698 H   0  0  0  0  0  0  0  0  0  0  0  0
   24.1954    2.1700  -38.4473 H   0  0  0  0  0  0  0  0  0  0  0  0
   24.3301    3.3460  -39.8025 H   0  0  0  0  0  0  0  0  0  0  0  0
   25.7997    2.5027  -39.1967 H   0  0  0  0  0  0  0  0  0  0  0  0
   23.6999    5.4211  -36.7669 H   0  0  0  0  0  0  0  0  0  0  0  0
   22.8831    4.2027  -37.7911 H   0  0  0  0  0  0  0  0  0  0  0  0
   23.6569    3.6939  -36.2460 H   0  0  0  0  0  0  0  0  0  0  0  0
   23.6507    1.3515  -34.2940 H   0  0  0  0  0  0  0  0  0  0  0  0
   26.0485    3.2985  -33.4892 H   0  0  0  0  0  0  0  0  0  0  0  0
   24.5927   -1.3539  -28.9252 H   0  0  0  0  0  0  0  0  0  0  0  0
  1  2  2  0
  2  3  1  0
  3  4  2  0
  5 11  2  0
 11 12  1  0
  6 12  2  0
  6 13  1  0
  6 14  1  0
  4 16  1  0
 10 16  1  0
  9 18  1  1
  8 18  1  0
  9 19  1  0
  1 20  1  0
 16 20  2  0
  9 21  1  0
  9 22  1  0
  5 23  1  0
 13 23  2  0
 13 24  1  0
  1 25  1  0
 14 26  1  0
 15 26  1  0
  7 26  1  0
 12 27  1  0
 15 27  2  0
 17 28  1  0
  2 28  1  0
  8 29  1  0
 17 29  1  0
  4 30  1  0
 23 30  1  0
 14 31  2  0
 17 32  2  0
  3 33  1  0
  5 34  1  0
  7 35  1  6
  7 36  1  0
  7 37  1  0
  8 38  1  1
  8 39  1  0
 10 40  1  1
 10 41  1  0
 10 42  1  0
 11 43  1  0
 15 44  1  0
 18 45  1  6
 18 46  1  0
 19 47  1  6
 19 48  1  0
 19 49  1  0
 20 50  1  0
 21 51  1  1
 21 52  1  0
 21 53  1  0
 22 54  1  1
 22 55  1  0
 22 56  1  0
 28 57  1  0
 29 58  1  0
 30 59  1  0
M  END
