7LZD_YHY_A_1805
     RDKit          3D

 29 32  0  0  0  0  0  0  0  0999 V2000
   -6.5446   25.5113   -0.8278 C   0  0  0  0  0  0  0  0  0  0  0  0
   -5.3751   25.0086   -0.1836 N   0  0  0  0  0  0  0  0  0  0  0  0
   -4.3940   24.4688   -1.0892 C   0  0  0  0  0  0  0  0  0  0  0  0
   -4.8384   25.8916    0.8164 C   0  0  1  0  0  0  0  0  0  0  0  0
   -5.8303   26.2934    1.8547 C   0  0  0  0  0  0  0  0  0  0  0  0
   -5.1233   27.1984    2.8713 C   0  0  0  0  0  0  0  0  0  0  0  0
   -3.0404   25.9329    2.5552 C   0  0  0  0  0  0  0  0  0  0  0  0
   -4.0984   26.3580    3.4838 N   0  0  0  0  0  0  0  0  0  0  0  0
   -3.7231   25.1038    1.5109 C   0  0  0  0  0  0  0  0  0  0  0  0
   -4.1227   25.9654    4.8461 C   0  0  0  0  0  0  0  0  0  0  0  0
   -2.9994   25.4652    5.5030 C   0  0  0  0  0  0  0  0  0  0  0  0
   -2.9839   25.0927    6.8152 C   0  0  0  0  0  0  0  0  0  0  0  0
   -4.1626   25.2253    7.5236 C   0  0  0  0  0  0  0  0  0  0  0  0
   -5.2871   25.7061    6.9368 C   0  0  0  0  0  0  0  0  0  0  0  0
   -5.2736   26.0786    5.5966 C   0  0  0  0  0  0  0  0  0  0  0  0
   -1.8672   24.5814    7.5173 N   0  0  0  0  0  0  0  0  0  0  0  0
   -0.5975   24.3198    6.9772 C   0  0  0  0  0  0  0  0  0  0  0  0
   -0.2897   24.5019    5.7808 O   0  0  0  0  0  0  0  0  0  0  0  0
    0.4761   23.7931    7.8464 C   0  0  0  0  0  0  0  0  0  0  0  0
    0.4168   23.6271    9.2258 C   0  0  0  0  0  0  0  0  0  0  0  0
    1.6112   23.1107    9.6836 C   0  0  0  0  0  0  0  0  0  0  0  0
    2.4026   22.9640    8.5557 C   0  0  0  0  0  0  0  0  0  0  0  0
    3.6933   22.4536    8.7016 C   0  0  0  0  0  0  0  0  0  0  0  0
    4.5706   22.2855    7.4912 C   0  0  0  0  0  0  0  0  0  0  0  0
    4.1353   22.1149    9.9508 C   0  0  0  0  0  0  0  0  0  0  0  0
    3.3579   22.2546   11.0903 C   0  0  0  0  0  0  0  0  0  0  0  0
    2.0729   22.7642   10.9350 C   0  0  0  0  0  0  0  0  0  0  0  0
    1.3127   22.9025   12.0374 F   0  0  0  0  0  0  0  0  0  0  0  0
    1.7031   23.3746    7.4962 N   0  0  0  0  0  0  0  0  0  0  0  0
  1  2  1  1
  3  2  1  6
  4  2  1  6
  4  5  1  0
  5  6  1  1
  7  8  1  6
  6  8  1  6
  9  7  1  6
  4  9  1  0
  8 10  1  0
 10 11  2  0
 11 12  1  0
 12 13  2  0
 13 14  1  0
 14 15  2  0
 10 15  1  0
 12 16  1  0
 16 17  1  0
 17 18  2  0
 17 19  1  0
 19 20  2  0
 20 21  1  0
 21 22  2  0
 22 23  1  0
 24 23  1  6
 23 25  2  0
 25 26  1  0
 21 27  1  0
 26 27  2  0
 27 28  1  0
 19 29  1  0
 22 29  1  0
M  END
$$$$
