7W6F_8I6_A_201
     RDKit          3D

 20 20  0  0  0  0  0  0  0  0999 V2000
   13.0191   22.0791   20.3083 C   0  0  0  0  0  0  0  0  0  0  0  0
   15.2520   22.7263   20.6662 C   0  0  0  0  0  0  0  0  0  0  0  0
   14.3470   21.8776   20.0456 C   0  0  0  0  0  0  0  0  0  0  0  0
    2.0329   20.4569   18.4726 C   0  0  0  0  0  0  0  0  0  0  0  0
    3.1886   21.2881   19.0312 C   0  0  0  0  0  0  0  0  0  0  0  0
    4.5278   20.6969   18.6898 C   0  0  0  0  0  0  0  0  0  0  0  0
    5.6973   21.4796   19.2442 C   0  0  0  0  0  0  0  0  0  0  0  0
    7.0116   20.8479   18.9340 C   0  0  0  0  0  0  0  0  0  0  0  0
    8.2036   21.5989   19.4386 C   0  0  0  0  0  0  0  0  0  0  0  0
    9.5090   20.9261   19.2451 C   0  0  0  0  0  0  0  0  0  0  0  0
   10.5944   21.7810   19.8708 C   0  0  0  0  0  0  0  0  0  0  0  0
   11.9770   21.2006   19.7295 C   0  0  0  0  0  0  0  0  0  0  0  0
   12.6465   23.1116   21.1708 C   0  0  0  0  0  0  0  0  0  0  0  0
   13.5461   23.9445   21.7780 C   0  0  0  0  0  0  0  0  0  0  0  0
   14.8828   23.7422   21.5159 C   0  0  0  0  0  0  0  0  0  0  0  0
   14.8612   20.8622   19.1378 C   0  0  0  0  0  0  0  0  0  0  0  0
   13.1826   24.9774   22.6403 O   0  0  0  0  0  0  0  0  0  0  0  0
   16.6375   22.5864   20.4509 O   0  0  0  0  0  0  0  0  0  0  0  0
   14.1864   20.0764   18.4624 O   0  0  0  0  0  0  0  0  0  0  0  0
   16.2596   20.7451   18.9994 O   0  0  0  0  0  0  0  0  0  0  0  0
  2  3  1  0
  1  3  2  0
  4  5  1  0
  5  6  1  0
  6  7  1  0
  7  8  1  0
  8  9  1  0
  9 10  1  0
 10 11  1  0
  1 12  1  0
 11 12  1  0
  1 13  1  0
 13 14  2  0
  2 15  2  0
 14 15  1  0
  3 16  1  0
 14 17  1  0
  2 18  1  0
 16 19  2  0
 16 20  1  0
M  END
$$$$
