1R9O_FLP_A_501
     RDKit          3D

 18 19  0  0  0  0  0  0  0  0999 V2000
    6.7395   29.4056   -6.5259 C   0  0  0  0  0  0  0  0  0  0  0  0
    6.8927   28.2126   -5.7098 C   0  0  0  0  0  0  0  0  0  0  0  0
    6.0380   27.9722   -4.5348 C   0  0  0  0  0  0  0  0  0  0  0  0
    5.0478   29.0346   -4.2064 C   0  0  0  0  0  0  0  0  0  0  0  0
    4.9073   30.2048   -5.0120 C   0  0  0  0  0  0  0  0  0  0  0  0
    5.7684   30.3981   -6.1492 C   0  0  0  0  0  0  0  0  0  0  0  0
    6.1393   26.7784   -3.7415 C   0  0  0  0  0  0  0  0  0  0  0  0
    6.5503   25.4913   -4.3831 C   0  0  0  0  0  0  0  0  0  0  0  0
    6.6441   24.2776   -3.6241 C   0  0  0  0  0  0  0  0  0  0  0  0
    6.4744   24.2855   -2.1783 C   0  0  0  0  0  0  0  0  0  0  0  0
    6.0807   25.5082   -1.5364 C   0  0  0  0  0  0  0  0  0  0  0  0
    5.9970   26.7485   -2.2587 C   0  0  0  0  0  0  0  0  0  0  0  0
    6.5779   22.9824   -1.3001 C   0  0  2  0  0  0  0  0  0  0  0  0
    5.1847   22.2947   -1.0671 C   0  0  0  0  0  0  0  0  0  0  0  0
    7.2840   23.3179    0.0847 C   0  0  0  0  0  0  0  0  0  0  0  0
    8.4575   22.9910    0.2856 O   0  0  0  0  0  0  0  0  0  0  0  0
    6.6266   23.9092    0.9696 O   0  0  0  0  0  0  0  0  0  0  0  0
    5.6315   27.8575   -1.5049 F   0  0  0  0  0  0  0  0  0  0  0  0
  1  2  2  0
  2  3  1  0
  3  4  2  0
  4  5  1  0
  1  6  1  0
  5  6  2  0
  3  7  1  0
  7  8  2  0
  8  9  1  0
  9 10  2  0
 10 11  1  0
  7 12  1  0
 11 12  2  0
 10 13  1  0
 13 14  1  1
 13 15  1  0
 15 16  2  0
 15 17  1  0
 12 18  1  0
M  END
