7ROU_66I_A_401
     RDKit          3D

 39 42  0  0  0  0  0  0  0  0999 V2000
   60.3454   16.9153   47.4822 C   0  0  1  0  0  0  0  0  0  0  0  0
   61.3144   15.4370   45.8499 C   0  0  0  0  0  0  0  0  0  0  0  0
   61.5006   14.3279   45.0557 C   0  0  0  0  0  0  0  0  0  0  0  0
   62.5825   14.2862   44.1842 C   0  0  0  0  0  0  0  0  0  0  0  0
   63.4784   15.3354   44.0960 C   0  0  0  0  0  0  0  0  0  0  0  0
   60.1820   15.5654   46.8116 C   0  0  0  0  0  0  0  0  0  0  0  0
   63.2913   16.4438   44.8904 C   0  0  0  0  0  0  0  0  0  0  0  0
   62.2178   16.4797   45.7521 C   0  0  0  0  0  0  0  0  0  0  0  0
   61.3052   20.5411   41.4121 C   0  0  1  0  0  0  0  0  0  0  0  0
   58.9932   17.3334   47.9527 C   0  0  0  0  0  0  0  0  0  0  0  0
   60.4305   21.1151   46.9764 C   0  0  2  0  0  0  0  0  0  0  0  0
   58.5091   21.0456   48.0250 C   0  0  2  0  0  0  0  0  0  0  0  0
   57.0527   20.6916   47.8057 C   0  0  0  0  0  0  0  0  0  0  0  0
   64.0175   18.9618   44.6633 C   0  0  0  0  0  0  0  0  0  0  0  0
   64.2502   18.8986   47.0049 C   0  0  0  0  0  0  0  0  0  0  0  0
   62.4131   19.9397   46.0702 C   0  0  0  0  0  0  0  0  0  0  0  0
   62.8390   19.6520   44.7732 C   0  0  0  0  0  0  0  0  0  0  0  0
   61.9431   20.1419   43.8557 C   0  0  0  0  0  0  0  0  0  0  0  0
   58.6583   22.5018   47.6015 C   0  0  2  0  0  0  0  0  0  0  0  0
   59.7225   22.3898   46.5483 C   0  0  1  0  0  0  0  0  0  0  0  0
   62.0463   20.1238   40.2836 F   0  0  0  0  0  0  0  0  0  0  0  0
   59.9630   20.2260   41.2509 F   0  0  0  0  0  0  0  0  0  0  0  0
   64.5598   18.5962   43.4110 N   0  0  0  0  0  0  0  0  0  0  0  0
   64.6909   18.6037   45.7690 N   0  0  0  0  0  0  0  0  0  0  0  0
   63.0975   19.5746   47.1575 N   0  0  0  0  0  0  0  0  0  0  0  0
   60.9716   20.7282   44.6351 N   0  0  0  0  0  0  0  0  0  0  0  0
   61.2642   20.5991   45.9080 N   0  0  0  0  0  0  0  0  0  0  0  0
   58.0636   17.8062   46.9963 N   0  0  0  0  0  0  0  0  0  0  0  0
   61.2761   16.8105   48.5770 N   0  0  0  0  0  0  0  0  0  0  0  0
   61.8848   20.1336   42.5309 O   0  0  0  0  0  0  0  0  0  0  0  0
   59.3594   20.2971   47.2500 O   0  0  0  0  0  0  0  0  0  0  0  0
   56.6451   19.6292   48.5753 O   0  0  0  0  0  0  0  0  0  0  0  0
   55.8500   17.1484   48.2826 O   0  0  0  0  0  0  0  0  0  0  0  0
   64.5587   15.3042   43.2317 O   0  0  0  0  0  0  0  0  0  0  0  0
   58.6761   17.2708   49.1716 O   0  0  0  0  0  0  0  0  0  0  0  0
   55.6874   18.7217   46.3735 O   0  0  0  0  0  0  0  0  0  0  0  0
   59.2066   23.2379   48.6720 O   0  0  0  0  0  0  0  0  0  0  0  0
   60.5456   23.4866   46.4762 O   0  0  0  0  0  0  0  0  0  0  0  0
   56.4997   18.2840   47.5747 S   0  0  2  0  0  6  0  0  0  0  0  0
  2  3  2  0
  3  4  1  0
  4  5  2  0
  6  2  1  6
  1  6  1  0
  5  7  1  0
  7  8  2  0
  2  8  1  0
  1 10  1  0
 12 13  1  0
 16 17  1  0
 14 17  2  0
 17 18  1  0
 12 19  1  0
 19 20  1  0
 11 20  1  0
  9 21  1  6
  9 22  1  0
 14 23  1  0
 15 24  2  0
 14 24  1  0
 16 25  2  0
 15 25  1  0
 18 26  2  0
 11 27  1  6
 26 27  1  0
 16 27  1  0
 10 28  1  0
  1 29  1  1
  9 30  1  0
 18 30  1  0
 12 31  1  6
 11 31  1  0
 13 32  1  1
  5 34  1  0
 10 35  2  0
 19 37  1  1
 20 38  1  1
 32 39  1  0
 33 39  2  0
 39 28  1  6
 36 39  2  0
M  END
$$$$
