@<TRIPOS>MOLECULE
1R58_AO5_A_501
 45 45 0 0 0
SMALL
GASTEIGER

@<TRIPOS>ATOM
      1 C          19.5710   33.0360   16.1000 C.3     1  UNL1       -0.0004
      2 C          18.7930   34.0790   15.2970 C.3     1  UNL1       -0.0536
      3 C          19.9230   33.5930   17.4710 C.3     1  UNL1       -0.0536
      4 S          21.0510   32.5290   15.2710 S.3     1  UNL1       -0.1579
      5 C          20.8100   30.7630   15.0850 C.3     1  UNL1       -0.0046
      6 C          21.0560   29.9950   16.3750 C.3     1  UNL1       -0.0258
      7 C          20.6120   28.5460   16.2170 C.3     1  UNL1        0.0405
      8 N          21.9220   27.9620   15.8740 N.3     1  UNL1       -0.3247
      9 C          20.0220   27.9640   17.5610 C.3     1  UNL1        0.1473
     10 O          20.0380   26.5410   17.5620 O.3     1  UNL1       -0.3810
     11 C          18.5920   28.4240   17.7420 C.2     1  UNL1        0.2592
     12 O          17.6390   27.8590   17.2390 O.2     1  UNL1       -0.2714
     13 N          18.4980   29.6570   18.5610 N.am    1  UNL1       -0.2320
     14 N          17.2150   30.3150   18.8200 N.am    1  UNL1       -0.2303
     15 C          16.5600   31.0460   17.8580 C.2     1  UNL1        0.2602
     16 O          17.0760   31.1400   16.7250 O.2     1  UNL1       -0.2687
     17 C          15.2500   31.7070   18.1670 C.ar    1  UNL1        0.0395
     18 C          14.5710   31.7310   19.5060 C.ar    1  UNL1       -0.0495
     19 C          13.2610   32.4350   19.6490 C.ar    1  UNL1       -0.0597
     20 C          12.6260   33.1070   18.4770 C.ar    1  UNL1       -0.0433
     21 C          13.3160   33.0650   17.1750 C.ar    1  UNL1        0.0417
     22 C          14.5890   32.3900   17.0110 C.ar    1  UNL1       -0.0312
     23 CL         12.6480   33.8090   15.7870 Cl      1  UNL1       -0.0835
     24 H          18.9414   32.1771   16.2038 H       1  UNL1        0.0407
     25 H          19.3945   34.9552   15.1732 H       1  UNL1        0.0240
     26 H          17.8946   34.3339   15.8194 H       1  UNL1        0.0240
     27 H          18.5454   33.6777   14.3365 H       1  UNL1        0.0240
     28 H          20.5522   34.4508   17.3566 H       1  UNL1        0.0240
     29 H          20.4381   32.8459   18.0380 H       1  UNL1        0.0240
     30 H          19.0263   33.8740   17.9828 H       1  UNL1        0.0240
     31 H          21.4863   30.4025   14.3383 H       1  UNL1        0.0377
     32 H          19.7892   30.6049   14.8058 H       1  UNL1        0.0377
     33 H          20.5013   30.4502   17.1687 H       1  UNL1        0.0289
     34 H          22.1017   30.0173   16.6009 H       1  UNL1        0.0289
     35 H          19.8267   28.3644   15.5133 H       1  UNL1        0.0489
     36 H          22.5976   28.1906   16.6032 H       1  UNL1        0.1186
     37 H          22.2413   28.3428   14.9832 H       1  UNL1        0.1186
     38 H          20.6354   28.3224   18.3612 H       1  UNL1        0.0706
     39 H          19.4832   26.2109   16.8381 H       1  UNL1        0.2105
     40 H          19.3199   30.0436   18.9408 H       1  UNL1        0.1729
     41 H          16.8085   30.2308   19.7127 H       1  UNL1        0.1731
     42 H          15.0046   31.2661   20.3189 H       1  UNL1        0.0625
     43 H          12.7904   32.4569   20.5672 H       1  UNL1        0.0618
     44 H          11.7206   33.5921   18.5764 H       1  UNL1        0.0632
     45 H          15.0450   32.3805   16.0852 H       1  UNL1        0.0640
@<TRIPOS>BOND
     1     1     2    1
     2     1     3    1
     3     1     4    1
     4     4     5    1
     5     5     6    1
     6     6     7    1
     7     7     8    1
     8     7     9    1
     9     9    10    1
    10     9    11    1
    11    11    12    2
    12    11    13   am
    13    13    14    1
    14    14    15   am
    15    15    16    2
    16    15    17    1
    17    17    18   ar
    18    18    19   ar
    19    19    20   ar
    20    20    21   ar
    21    17    22   ar
    22    21    22   ar
    23    21    23    1
    24     1    24    1
    25     2    25    1
    26     2    26    1
    27     2    27    1
    28     3    28    1
    29     3    29    1
    30     3    30    1
    31     5    31    1
    32     5    32    1
    33     6    33    1
    34     6    34    1
    35     7    35    1
    36     8    36    1
    37     8    37    1
    38     9    38    1
    39    10    39    1
    40    13    40    1
    41    14    41    1
    42    18    42    1
    43    19    43    1
    44    20    44    1
    45    22    45    1
