@<TRIPOS>MOLECULE
1R58_AO5_A_501
 45 45 0 0 0
SMALL
GASTEIGER

@<TRIPOS>ATOM
      1 C           1.7537   -3.5719   -3.4914 C.3     1  UNL1       -0.0004
      2 C           0.5459   -2.6454   -3.6555 C.3     1  UNL1       -0.0536
      3 C           1.3390   -4.9988   -3.1217 C.3     1  UNL1       -0.0536
      4 S           3.0173   -2.9012   -2.3322 S.3     1  UNL1       -0.1579
      5 C           2.0045   -2.6667   -0.8190 C.3     1  UNL1       -0.0046
      6 C           1.6023   -1.1952   -0.6250 C.3     1  UNL1       -0.0258
      7 C           2.7046   -0.3445    0.0515 C.3     1  UNL1        0.0405
      8 N           3.9061   -0.3322   -0.7893 N.3     1  UNL1       -0.3247
      9 C           2.2167    1.1023    0.3295 C.3     1  UNL1        0.1473
     10 O           3.2737    1.8645    0.8543 O.3     1  UNL1       -0.3810
     11 C           1.0687    1.1126    1.3079 C.2     1  UNL1        0.2592
     12 O           1.2917    0.8967    2.5302 O.2     1  UNL1       -0.2714
     13 N          -0.2718    1.3292    0.8468 N.am    1  UNL1       -0.2320
     14 N          -1.3654    1.3035    1.7317 N.am    1  UNL1       -0.2303
     15 C          -2.7036    1.5382    1.2671 C.2     1  UNL1        0.2602
     16 O          -2.8883    1.9575    0.0919 O.2     1  UNL1       -0.2687
     17 C          -3.8733    1.3172    2.1517 C.ar    1  UNL1        0.0395
     18 C          -3.8103    0.4132    3.2293 C.ar    1  UNL1       -0.0495
     19 C          -4.9244    0.2112    4.0496 C.ar    1  UNL1       -0.0597
     20 C          -6.1128    0.9013    3.8026 C.ar    1  UNL1       -0.0433
     21 C          -6.1929    1.7927    2.7293 C.ar    1  UNL1        0.0417
     22 C          -5.0808    1.9974    1.9047 C.ar    1  UNL1       -0.0312
     23 CL         -7.6884    2.6546    2.4159 Cl      1  UNL1       -0.0835
     24 H           2.2559   -3.6279   -4.4816 H       1  UNL1        0.0407
     25 H           0.8874   -1.6178   -3.9009 H       1  UNL1        0.0240
     26 H          -0.0736   -2.6148   -2.7362 H       1  UNL1        0.0240
     27 H          -0.0927   -3.0055   -4.4901 H       1  UNL1        0.0240
     28 H           0.7407   -5.4412   -3.9465 H       1  UNL1        0.0240
     29 H           2.2412   -5.6289   -2.9717 H       1  UNL1        0.0240
     30 H           0.7252   -5.0246   -2.1994 H       1  UNL1        0.0240
     31 H           2.5947   -3.0161    0.0544 H       1  UNL1        0.0377
     32 H           1.0930   -3.2927   -0.8448 H       1  UNL1        0.0377
     33 H           1.3170   -0.7420   -1.5981 H       1  UNL1        0.0289
     34 H           0.6957   -1.1875    0.0170 H       1  UNL1        0.0289
     35 H           2.9640   -0.8197    1.0251 H       1  UNL1        0.0489
     36 H           4.7008    0.0822   -0.2507 H       1  UNL1        0.1186
     37 H           3.7397    0.2688   -1.6297 H       1  UNL1        0.1186
     38 H           1.8866    1.5533   -0.6357 H       1  UNL1        0.0706
     39 H           3.0149    2.8189    0.7604 H       1  UNL1        0.2105
     40 H          -0.4333    1.4805   -0.1744 H       1  UNL1        0.1729
     41 H          -1.1967    1.1542    2.7510 H       1  UNL1        0.1731
     42 H          -2.9135   -0.1581    3.4280 H       1  UNL1        0.0625
     43 H          -4.8679   -0.4873    4.8746 H       1  UNL1        0.0618
     44 H          -6.9713    0.7388    4.4419 H       1  UNL1        0.0632
     45 H          -5.1579    2.6950    1.0797 H       1  UNL1        0.0640
@<TRIPOS>BOND
     1     1     2    1
     2     1     3    1
     3     1     4    1
     4     4     5    1
     5     5     6    1
     6     6     7    1
     7     7     8    1
     8     7     9    1
     9     9    10    1
    10     9    11    1
    11    11    12    2
    12    11    13   am
    13    13    14    1
    14    14    15   am
    15    15    16    2
    16    15    17    1
    17    17    18   ar
    18    18    19   ar
    19    19    20   ar
    20    20    21   ar
    21    17    22   ar
    22    21    22   ar
    23    21    23    1
    24     1    24    1
    25     2    25    1
    26     2    26    1
    27     2    27    1
    28     3    28    1
    29     3    29    1
    30     3    30    1
    31     5    31    1
    32     5    32    1
    33     6    33    1
    34     6    34    1
    35     7    35    1
    36     8    36    1
    37     8    37    1
    38     9    38    1
    39    10    39    1
    40    13    40    1
    41    14    41    1
    42    18    42    1
    43    19    43    1
    44    20    44    1
    45    22    45    1
