1NAV_IH5_A_600
     RDKit          3D

 23 24  0  0  0  0  0  0  0  0999 V2000
   49.8165   18.0200   19.6596 O   0  0  0  0  0  0  0  0  0  0  0  0
   49.1896   19.2223   19.7101 C   0  0  0  0  0  0  0  0  0  0  0  0
   49.6238   20.2912   19.2585 O   0  0  0  0  0  0  0  0  0  0  0  0
   47.8848   19.1644   20.3475 C   0  0  0  0  0  0  0  0  0  0  0  0
   46.8732   18.1327   19.9721 C   0  0  0  0  0  0  0  0  0  0  0  0
   45.7016   18.1166   20.7874 C   0  0  0  0  0  0  0  0  0  0  0  0
   44.6695   17.1706   20.5412 C   0  0  0  0  0  0  0  0  0  0  0  0
   44.7855   16.2006   19.4696 C   0  0  0  0  0  0  0  0  0  0  0  0
   43.8686   15.2487   19.1633 O   0  0  0  0  0  0  0  0  0  0  0  0
   43.9460   13.9284   19.8054 C   0  0  0  0  0  0  0  0  0  0  0  0
   44.3623   13.7211   21.2058 C   0  0  0  0  0  0  0  0  0  0  0  0
   44.3971   12.3952   21.7533 C   0  0  0  0  0  0  0  0  0  0  0  0
   44.0250   11.2542   20.9635 C   0  0  0  0  0  0  0  0  0  0  0  0
   44.0700    9.9918   21.5370 O   0  0  0  0  0  0  0  0  0  0  0  0
   43.6115   11.4164   19.5702 C   0  0  0  0  0  0  0  0  0  0  0  0
   43.5762   12.7650   19.0121 C   0  0  0  0  0  0  0  0  0  0  0  0
   43.2077   10.1556   18.7106 C   0  0  2  0  0  0  0  0  0  0  0  0
   44.4264    9.7917   17.8346 C   0  0  0  0  0  0  0  0  0  0  0  0
   41.9587   10.4219   17.7740 C   0  0  0  0  0  0  0  0  0  0  0  0
   45.9510   16.2213   18.6680 C   0  0  0  0  0  0  0  0  0  0  0  0
   47.0014   17.1683   18.8847 C   0  0  0  0  0  0  0  0  0  0  0  0
   46.1535   15.1035   17.4011 Cl  0  0  0  0  0  0  0  0  0  0  0  0
   43.2996   17.2059   21.5024 Cl  0  0  0  0  0  0  0  0  0  0  0  0
  1  2  1  0
  2  3  2  0
  2  4  1  0
  4  5  1  0
  5  6  2  0
  6  7  1  0
  7  8  2  0
  8  9  1  0
  9 10  1  0
 10 11  2  0
 11 12  1  0
 12 13  2  0
 13 14  1  0
 13 15  1  0
 10 16  1  0
 15 16  2  0
 15 17  1  0
 17 18  1  6
 17 19  1  0
  8 20  1  0
  5 21  1  0
 20 21  2  0
 20 22  1  0
  7 23  1  0
M  END
