7TBU_S3P_A_902
     RDKit          3D

 27 27  0  0  0  0  0  0  0  0999 V2000
   21.3025   82.1452   12.9337 C   0  0  0  0  0  0  0  0  0  0  0  0
   22.0828   83.2290   13.1161 C   0  0  0  0  0  0  0  0  0  0  0  0
   23.5907   83.1904   13.0708 C   0  0  2  0  0  0  0  0  0  0  0  0
   24.1401   81.7798   13.3657 C   0  0  2  0  0  0  0  0  0  0  0  0
   23.3886   80.7299   12.5253 C   0  0  1  0  0  0  0  0  0  0  0  0
   21.8911   80.7495   12.8644 C   0  0  1  0  0  0  0  0  0  0  0  0
   19.8281   82.2917   12.9219 C   0  0  0  0  0  0  0  0  0  0  0  0
   24.0854   84.1046   14.0324 O   0  0  0  0  0  0  0  0  0  0  0  0
   24.0069   81.4928   14.7358 O   0  0  0  0  0  0  0  0  0  0  0  0
   23.5609   80.9811   11.1534 O   0  0  0  0  0  0  0  0  0  0  0  0
   19.2379   83.5488   13.0323 O   0  0  0  0  0  0  0  0  0  0  0  0
   19.0924   81.2740   12.8110 O   0  0  0  0  0  0  0  0  0  0  0  0
   25.5472   84.8086   13.4943 P   0  0  1  0  0  5  0  0  0  0  0  0
   25.2518   86.0455   12.6742 O   0  0  0  0  0  0  0  0  0  0  0  0
   26.4673   85.2503   14.8432 O   0  0  0  0  0  0  0  0  0  0  0  0
   26.4379   83.7036   12.5693 O   0  0  0  0  0  0  0  0  0  0  0  0
   21.6292   84.2103   13.1891 H   0  0  0  0  0  0  0  0  0  0  0  0
   23.8579   83.4607   12.0218 H   0  0  0  0  0  0  0  0  0  0  0  0
   25.2189   81.7566   13.0892 H   0  0  0  0  0  0  0  0  0  0  0  0
   23.7839   79.7150   12.7644 H   0  0  0  0  0  0  0  0  0  0  0  0
   21.7368   80.2601   13.8506 H   0  0  0  0  0  0  0  0  0  0  0  0
   21.3456   80.1464   12.1060 H   0  0  0  0  0  0  0  0  0  0  0  0
   24.5808   80.7039   14.9206 H   0  0  0  0  0  0  0  0  0  0  0  0
   24.4412   81.4292   11.0529 H   0  0  0  0  0  0  0  0  0  0  0  0
   18.2302   83.6502   13.0581 H   0  0  0  0  0  0  0  0  0  0  0  0
   26.2872   86.2165   14.9662 H   0  0  0  0  0  0  0  0  0  0  0  0
   25.8367   82.9272   12.4399 H   0  0  0  0  0  0  0  0  0  0  0  0
  1  2  2  0
  2  3  1  0
  3  4  1  0
  4  5  1  0
  1  6  1  0
  5  6  1  0
  1  7  1  0
  3  8  1  0
  4  9  1  0
  5 10  1  0
  7 11  1  0
  7 12  2  0
 13  8  1  1
 13 14  2  0
 13 15  1  0
 13 16  1  0
  2 17  1  0
  3 18  1  6
  4 19  1  6
  5 20  1  6
  6 21  1  1
  6 22  1  0
  9 23  1  0
 10 24  1  0
 11 25  1  0
 15 26  1  0
 16 27  1  0
M  END
