
     RDKit          3D

 25 27  0  0  0  0  0  0  0  0999 V2000
   57.7147   24.0024   32.9198 C   0  0  2  0  0  0  0  0  0  0  0  0
   58.0826   25.2493   32.1484 C   0  0  0  0  0  0  0  0  0  0  0  0
   57.6346   25.6135   31.0742 O   0  0  0  0  0  0  0  0  0  0  0  0
   58.9728   26.0173   32.8078 O   0  0  0  0  0  0  0  0  0  0  0  0
   56.9852   22.9978   32.0112 C   0  0  0  0  0  0  0  0  0  0  0  0
   57.5902   22.9411   30.6234 C   0  0  0  0  0  0  0  0  0  0  0  0
   56.7651   22.9168   29.4908 C   0  0  0  0  0  0  0  0  0  0  0  0
   57.3210   22.8468   28.2127 C   0  0  0  0  0  0  0  0  0  0  0  0
   58.7049   22.7985   28.0551 C   0  0  0  0  0  0  0  0  0  0  0  0
   59.5340   22.8195   29.1751 C   0  0  0  0  0  0  0  0  0  0  0  0
   58.9802   22.8892   30.4541 C   0  0  0  0  0  0  0  0  0  0  0  0
   56.9752   24.4159   34.2165 C   0  0  0  0  0  0  0  0  0  0  0  0
   57.8037   25.2681   35.1573 C   0  0  0  0  0  0  0  0  0  0  0  0
   57.6736   26.4699   35.3313 O   0  0  0  0  0  0  0  0  0  0  0  0
   58.7962   24.6170   35.7869 O   0  0  0  0  0  0  0  0  0  0  0  0
   56.2076   23.3118   34.9798 C   0  0  0  0  0  0  0  0  0  0  0  0
   56.4288   23.1812   36.4682 C   0  0  0  0  0  0  0  0  0  0  0  0
   55.9174   24.1343   37.3633 C   0  0  0  0  0  0  0  0  0  0  0  0
   56.1495   23.9557   38.7119 C   0  0  0  0  0  0  0  0  0  0  0  0
   55.7332   24.7871   39.7047 O   0  0  0  0  0  0  0  0  0  0  0  0
   56.2518   24.1038   40.8646 C   0  0  0  0  0  0  0  0  0  0  0  0
   56.9611   22.8887   40.5470 O   0  0  0  0  0  0  0  0  0  0  0  0
   56.8473   22.8743   39.1924 C   0  0  0  0  0  0  0  0  0  0  0  0
   57.3486   21.9071   38.3517 C   0  0  0  0  0  0  0  0  0  0  0  0
   57.1302   22.0623   36.9788 C   0  0  0  0  0  0  0  0  0  0  0  0
  1  2  1  0
  2  3  2  0
  2  4  1  0
  1  5  1  6
  5  6  1  0
  6  7  4  0
  7  8  4  0
  8  9  4  0
  9 10  4  0
  6 11  4  0
 10 11  4  0
  1 12  1  0
 12 13  1  0
 13 14  2  0
 13 15  1  0
 12 16  1  0
 16 17  1  0
 17 18  4  0
 18 19  4  0
 19 20  1  0
 20 21  1  0
 21 22  1  0
 19 23  4  0
 22 23  1  0
 23 24  4  0
 17 25  4  0
 24 25  4  0
M  END
