
     RDKit          3D

 27 29  0  0  0  0  0  0  0  0999 V2000
  -22.1722  -18.4172    8.9540 P   0  0  0  0  0  5  0  0  0  0  0  0
  -22.9601  -17.2415    9.4220 O   0  0  0  0  0  0  0  0  0  0  0  0
  -20.5957  -18.1875    8.9931 O   0  0  0  0  0  0  0  0  0  0  0  0
  -22.3991  -18.8389    7.4398 O   0  0  0  0  0  0  0  0  0  0  0  0
  -19.0354  -22.7207   12.9721 P   0  0  0  0  0  5  0  0  0  0  0  0
  -17.9863  -23.6534   12.4758 O   0  0  0  0  0  0  0  0  0  0  0  0
  -18.6912  -21.1754   12.7993 O   0  0  0  0  0  0  0  0  0  0  0  0
  -19.2696  -22.8366   14.5499 O   0  0  0  0  0  0  0  0  0  0  0  0
  -20.4986  -22.8981   12.3477 O   0  0  0  0  0  0  0  0  0  0  0  0
  -20.8991  -22.0595   11.2732 C   0  0  0  0  0  0  0  0  0  0  0  0
  -22.1256  -21.2365   11.6647 C   0  0  1  0  0  0  0  0  0  0  0  0
  -22.2258  -21.1048   13.0948 O   0  0  0  0  0  0  0  0  0  0  0  0
  -22.1062  -19.8047   11.1392 C   0  0  1  0  0  0  0  0  0  0  0  0
  -22.4275  -19.7712    9.7593 O   0  0  0  0  0  0  0  0  0  0  0  0
  -23.1092  -19.1101   12.0601 C   0  0  1  0  0  0  0  0  0  0  0  0
  -24.4286  -19.0849   11.5005 O   0  0  0  0  0  0  0  0  0  0  0  0
  -23.0976  -19.9793   13.3282 C   0  0  2  0  0  0  0  0  0  0  0  0
  -22.6931  -19.2546   14.5154 N   0  0  0  0  0  0  0  0  0  0  0  0
  -21.3906  -18.9259   14.7869 C   0  0  0  0  0  0  0  0  0  0  0  0
  -21.2705  -18.2947   15.9324 N   0  0  0  0  0  0  0  0  0  0  0  0
  -22.5530  -18.2042   16.4228 C   0  0  0  0  0  0  0  0  0  0  0  0
  -23.0744  -17.6372   17.5998 C   0  0  0  0  0  0  0  0  0  0  0  0
  -22.2933  -16.9783   18.5371 N   0  0  0  0  0  0  0  0  0  0  0  0
  -24.3907  -17.7506   17.8408 N   0  0  0  0  0  0  0  0  0  0  0  0
  -25.1588  -18.3867   16.9315 C   0  0  0  0  0  0  0  0  0  0  0  0
  -24.7868  -18.9368   15.7505 N   0  0  0  0  0  0  0  0  0  0  0  0
  -23.4552  -18.8144   15.5653 C   0  0  0  0  0  0  0  0  0  0  0  0
  1  2  2  0
  1  3  1  0
  1  4  1  0
  5  6  2  0
  5  7  1  0
  5  8  1  0
  5  9  1  0
  9 10  1  0
 11 10  1  1
 11 12  1  0
 11 13  1  0
  1 14  1  0
 13 14  1  6
 13 15  1  0
 15 16  1  6
 12 17  1  0
 15 17  1  0
 17 18  1  1
 18 19  4  0
 19 20  4  0
 20 21  4  0
 21 22  4  0
 22 23  1  0
 22 24  4  0
 24 25  4  0
 25 26  4  0
 18 27  4  0
 21 27  4  0
 26 27  4  0
M  END
