1PMN_984_A_501
     RDKit          3D

 63 67  0  0  0  0  0  0  0  0999 V2000
   24.8870   11.5678   30.3117 N   0  0  0  0  0  0  0  0  0  0  0  0
   24.3875   12.6739   29.6983 C   0  0  0  0  0  0  0  0  0  0  0  0
   23.1113   12.9298   30.0554 N   0  0  0  0  0  0  0  0  0  0  0  0
   22.7956   11.9620   30.9339 C   0  0  0  0  0  0  0  0  0  0  0  0
   23.8827   11.1183   31.1033 C   0  0  0  0  0  0  0  0  0  0  0  0
   26.1978   10.9439   30.0851 C   0  0  2  0  0  0  0  0  0  0  0  0
   27.3053   12.0055   30.0782 C   0  0  2  0  0  0  0  0  0  0  0  0
   28.6860   11.3608   30.0149 C   0  0  2  0  0  0  0  0  0  0  0  0
   25.1267   13.5165   28.6729 C   0  0  2  0  0  0  0  0  0  0  0  0
   25.9003   14.6752   29.3323 C   0  0  2  0  0  0  0  0  0  0  0  0
   24.9960   15.8640   29.6837 C   0  0  2  0  0  0  0  0  0  0  0  0
   24.2538   16.3174   28.4923 N   0  0  0  0  0  0  0  0  0  0  0  0
   23.3653   15.2473   28.0014 C   0  0  1  0  0  0  0  0  0  0  0  0
   24.1860   14.0270   27.5634 C   0  0  2  0  0  0  0  0  0  0  0  0
   23.4625   17.5131   28.8208 C   0  0  1  0  0  0  0  0  0  0  0  0
   21.4558   11.8381   31.5449 C   0  0  0  0  0  0  0  0  0  0  0  0
   23.8543    9.8292   31.8319 C   0  0  0  0  0  0  0  0  0  0  0  0
   20.3947   12.6188   31.0609 C   0  0  0  0  0  0  0  0  0  0  0  0
   19.1109   12.4878   31.6038 C   0  0  0  0  0  0  0  0  0  0  0  0
   18.8848   11.5813   32.6533 C   0  0  0  0  0  0  0  0  0  0  0  0
   19.9467   10.8217   33.1553 C   0  0  0  0  0  0  0  0  0  0  0  0
   21.2261   10.9515   32.6095 C   0  0  0  0  0  0  0  0  0  0  0  0
   17.8046   13.4626   30.9447 Cl  0  0  0  0  0  0  0  0  0  0  0  0
   17.2854   11.3775   33.3548 Cl  0  0  0  0  0  0  0  0  0  0  0  0
   24.9955    9.2908   32.4383 C   0  0  0  0  0  0  0  0  0  0  0  0
   24.8777    8.0871   33.1338 C   0  0  0  0  0  0  0  0  0  0  0  0
   23.6685    7.4774   33.2393 N   0  0  0  0  0  0  0  0  0  0  0  0
   22.5612    8.0231   32.6712 C   0  0  0  0  0  0  0  0  0  0  0  0
   22.6661    9.1844   31.9734 N   0  0  0  0  0  0  0  0  0  0  0  0
   21.2883    7.3904   32.8315 N   0  0  0  0  0  0  0  0  0  0  0  0
   20.0669    8.1754   32.9930 C   0  0  1  0  0  0  0  0  0  0  0  0
   18.8124    7.4371   32.5578 C   0  0  2  0  0  0  0  0  0  0  0  0
   19.1131    7.6229   34.0371 C   0  0  2  0  0  0  0  0  0  0  0  0
   26.1913   10.3896   29.1224 H   0  0  0  0  0  0  0  0  0  0  0  0
   26.4052   10.1822   30.8642 H   0  0  0  0  0  0  0  0  0  0  0  0
   27.2394   12.6311   30.9925 H   0  0  0  0  0  0  0  0  0  0  0  0
   27.1843   12.6786   29.2040 H   0  0  0  0  0  0  0  0  0  0  0  0
   29.4659   12.0887   30.3251 H   0  0  0  0  0  0  0  0  0  0  0  0
   28.8974   11.0364   28.9742 H   0  0  0  0  0  0  0  0  0  0  0  0
   28.7269   10.4721   30.6802 H   0  0  0  0  0  0  0  0  0  0  0  0
   25.8854   12.8869   28.1690 H   0  0  0  0  0  0  0  0  0  0  0  0
   26.6830   15.0301   28.6259 H   0  0  0  0  0  0  0  0  0  0  0  0
   26.4202   14.3173   30.2479 H   0  0  0  0  0  0  0  0  0  0  0  0
   25.6491   16.6853   30.0537 H   0  0  0  0  0  0  0  0  0  0  0  0
   24.3022   15.5945   30.5104 H   0  0  0  0  0  0  0  0  0  0  0  0
   22.6198   14.9576   28.7749 H   0  0  0  0  0  0  0  0  0  0  0  0
   22.7983   15.6081   27.1146 H   0  0  0  0  0  0  0  0  0  0  0  0
   23.5020   13.2133   27.2363 H   0  0  0  0  0  0  0  0  0  0  0  0
   24.7985   14.3181   26.6812 H   0  0  0  0  0  0  0  0  0  0  0  0
   23.0947   17.4534   29.8677 H   0  0  0  0  0  0  0  0  0  0  0  0
   24.0970   18.4227   28.7486 H   0  0  0  0  0  0  0  0  0  0  0  0
   22.5915   17.6228   28.1362 H   0  0  0  0  0  0  0  0  0  0  0  0
   20.5589   13.3117   30.2440 H   0  0  0  0  0  0  0  0  0  0  0  0
   19.7812   10.1270   33.9690 H   0  0  0  0  0  0  0  0  0  0  0  0
   22.0359   10.3616   33.0204 H   0  0  0  0  0  0  0  0  0  0  0  0
   25.9500    9.7934   32.3959 H   0  0  0  0  0  0  0  0  0  0  0  0
   25.7459    7.6454   33.6045 H   0  0  0  0  0  0  0  0  0  0  0  0
   21.2525    6.3604   33.0047 H   0  0  0  0  0  0  0  0  0  0  0  0
   20.0960    9.2718   32.8168 H   0  0  0  0  0  0  0  0  0  0  0  0
   18.9663    6.3993   32.1915 H   0  0  0  0  0  0  0  0  0  0  0  0
   18.0074    8.0969   32.1700 H   0  0  0  0  0  0  0  0  0  0  0  0
   18.4834    8.3911   34.5331 H   0  0  0  0  0  0  0  0  0  0  0  0
   19.4456    6.6954   34.5510 H   0  0  0  0  0  0  0  0  0  0  0  0
  1  2  1  0
  2  3  2  0
  3  4  1  0
  1  5  1  0
  4  5  2  0
  1  6  1  0
  6  7  1  0
  7  8  1  0
  2  9  1  0
  9 10  1  0
 10 11  1  0
 11 12  1  0
 12 13  1  0
  9 14  1  0
 13 14  1  0
 12 15  1  0
  4 16  1  0
  5 17  1  0
 16 18  2  0
 18 19  1  0
 19 20  2  0
 20 21  1  0
 16 22  1  0
 21 22  2  0
 19 23  1  0
 20 24  1  0
 17 25  2  0
 25 26  1  0
 26 27  2  0
 27 28  1  0
 17 29  1  0
 28 29  2  0
 28 30  1  0
 30 31  1  0
 31 32  1  0
 31 33  1  0
 32 33  1  0
  6 34  1  6
  6 35  1  0
  7 36  1  1
  7 37  1  0
  8 38  1  1
  8 39  1  0
  8 40  1  0
  9 41  1  6
 10 42  1  6
 10 43  1  0
 11 44  1  1
 11 45  1  0
 13 46  1  1
 13 47  1  0
 14 48  1  6
 14 49  1  0
 15 50  1  1
 15 51  1  0
 15 52  1  0
 18 53  1  0
 21 54  1  0
 22 55  1  0
 25 56  1  0
 26 57  1  0
 30 58  1  0
 31 59  1  6
 32 60  1  1
 32 61  1  0
 33 62  1  1
 33 63  1  0
M  END
