
     RDKit          3D

 52 54  0  0  0  0  0  0  0  0999 V2000
  188.0138    3.5624   92.1918 O   0  0  0  0  0  0  0  0  0  0  0  0
  189.4453    3.6871   91.8087 P   0  0  0  0  0  5  0  0  0  0  0  0
  189.8566    2.6718   90.6400 O   0  0  0  0  0  0  0  0  0  0  0  0
  189.9013    5.0794   91.1904 O   0  0  0  0  0  0  0  0  0  0  0  0
  190.5210    3.4072   92.9620 O   0  0  0  0  0  0  0  0  0  0  0  0
  191.7881    2.8873   92.5496 C   0  0  1  0  0  0  0  0  0  0  0  0
  192.8743    3.8878   92.9137 C   0  0  1  0  0  0  0  0  0  0  0  0
  192.4865    5.2483   92.7147 O   0  0  0  0  0  0  0  0  0  0  0  0
  193.0856    3.5610   94.3916 C   0  0  2  0  0  0  0  0  0  0  0  0
  194.4030    3.8764   94.9020 N   0  0  0  0  0  0  0  0  0  0  0  0
  194.7268    4.7777   95.8826 C   0  0  0  0  0  0  0  0  0  0  0  0
  193.9027    5.5840   96.5739 N   0  0  0  0  0  0  0  0  0  0  0  0
  194.5908    6.3369   97.4549 C   0  0  0  0  0  0  0  0  0  0  0  0
  195.9207    6.3492   97.6933 N   0  0  0  0  0  0  0  0  0  0  0  0
  196.7034    5.4963   96.9915 C   0  0  0  0  0  0  0  0  0  0  0  0
  198.0676    5.4846   97.2561 N   0  0  0  0  0  0  0  0  0  0  0  0
  196.1014    4.6702   96.0229 C   0  0  0  0  0  0  0  0  0  0  0  0
  196.6177    3.7383   95.1431 N   0  0  0  0  0  0  0  0  0  0  0  0
  195.5692    3.2826   94.4877 C   0  0  0  0  0  0  0  0  0  0  0  0
  192.8286    2.1544   94.5773 O   0  0  0  0  0  0  0  0  0  0  0  0
  192.1430    1.6665   93.4035 C   0  0  2  0  0  0  0  0  0  0  0  0
  193.0341    0.6659   92.6680 C   0  0  0  0  0  0  0  0  0  0  0  0
  194.2716    1.2809   92.3569 O   0  0  0  0  0  0  0  0  0  0  0  0
  195.0383    0.7696   91.0388 P   0  0  1  0  0  5  0  0  0  0  0  0
  193.8921   -0.0530   90.2715 O   0  0  0  0  0  0  0  0  0  0  0  0
  195.6590    1.8419   90.2065 O   0  0  0  0  0  0  0  0  0  0  0  0
  196.0164   -0.3457   91.6079 O   0  0  0  0  0  0  0  0  0  0  0  0
  197.5509   -0.0333   91.8558 P   0  0  1  0  0  5  0  0  0  0  0  0
  198.3355    0.2244   90.6102 O   0  0  0  0  0  0  0  0  0  0  0  0
  197.5605    1.2034   92.8696 O   0  0  0  0  0  0  0  0  0  0  0  0
  198.0849   -1.2514   92.7445 O   0  0  0  0  0  0  0  0  0  0  0  0
  197.4060   -1.6378   93.9200 C   0  0  0  0  0  0  0  0  0  0  0  0
  198.4070   -2.0087   95.0384 C   0  0  1  0  0  0  0  0  0  0  0  0
  197.6325   -1.9924   96.3753 C   0  0  0  0  0  0  0  0  0  0  0  0
  198.9231   -3.4444   94.8128 C   0  0  0  0  0  0  0  0  0  0  0  0
  199.5760   -0.9821   95.1220 C   0  0  1  0  0  0  0  0  0  0  0  0
  199.0578    0.2875   95.5625 O   0  0  0  0  0  0  0  0  0  0  0  0
  200.7384   -1.3819   96.0616 C   0  0  0  0  0  0  0  0  0  0  0  0
  201.7069   -2.0398   95.6872 O   0  0  0  0  0  0  0  0  0  0  0  0
  200.5859   -0.8997   97.3427 N   0  0  0  0  0  0  0  0  0  0  0  0
  201.6157   -0.9845   98.3558 C   0  0  0  0  0  0  0  0  0  0  0  0
  202.0475   -2.3989   98.7252 C   0  0  0  0  0  0  0  0  0  0  0  0
  200.9666   -3.2137   99.4095 C   0  0  0  0  0  0  0  0  0  0  0  0
  200.8511   -3.3347  100.6252 O   0  0  0  0  0  0  0  0  0  0  0  0
  200.1145   -3.8123   98.5021 N   0  0  0  0  0  0  0  0  0  0  0  0
  198.9539   -4.5848   98.9266 C   0  0  0  0  0  0  0  0  0  0  0  0
  199.3004   -5.9327   99.5724 C   0  0  0  0  0  0  0  0  0  0  0  0
  197.9080   -6.6143  100.5334 S   0  0  0  0  0  0  0  0  0  0  0  0
  198.3426   -8.3218  100.5763 C   0  0  0  0  0  0  0  0  0  0  0  0
  199.5036   -8.6962  100.4940 O   0  0  0  0  0  0  0  0  0  0  0  0
  197.1488   -9.2451  100.7164 C   0  0  0  0  0  0  0  0  0  0  0  0
  196.9906  -10.1599   99.5130 C   0  0  0  0  0  0  0  0  0  0  0  0
  1  2  2  0
  2  3  1  0
  2  4  1  0
  2  5  1  0
  6  5  1  1
  6  7  1  0
  7  8  1  1
  7  9  1  0
  9 10  1  6
 10 11  4  0
 11 12  4  0
 12 13  4  0
 13 14  4  0
 14 15  4  0
 15 16  1  0
 11 17  4  0
 15 17  4  0
 17 18  4  0
 18 19  4  0
 10 19  4  0
  9 20  1  0
  6 21  1  0
 20 21  1  0
 21 22  1  6
 22 23  1  0
 23 24  1  0
 24 25  1  6
 24 26  2  0
 24 27  1  0
 27 28  1  0
 28 29  2  0
 28 30  1  1
 28 31  1  0
 31 32  1  0
 32 33  1  0
 33 34  1  1
 33 35  1  0
 33 36  1  0
 36 37  1  1
 36 38  1  0
 38 39  2  0
 38 40  1  0
 40 41  1  0
 41 42  1  0
 42 43  1  0
 43 44  2  0
 43 45  1  0
 45 46  1  0
 46 47  1  0
 47 48  1  0
 48 49  1  0
 49 50  2  0
 49 51  1  0
 51 52  1  0
M  END
