7PJQ_OWH_A_601
     RDKit          3D

 10 10  0  0  0  0  0  0  0  0999 V2000
   22.8720   37.1467    7.7921 C   0  0  0  0  0  0  0  0  0  0  0  0
   24.4249   38.0651    9.5199 C   0  0  0  0  0  0  0  0  0  0  0  0
   25.8810   38.2031    9.8918 C   0  0  0  0  0  0  0  0  0  0  0  0
   26.8162   37.3632    9.3127 C   0  0  0  0  0  0  0  0  0  0  0  0
   28.5085   38.3616   10.4848 C   0  0  0  0  0  0  0  0  0  0  0  0
   27.6287   39.2353   11.1036 C   0  0  0  0  0  0  0  0  0  0  0  0
   26.2836   39.1587   10.7986 C   0  0  0  0  0  0  0  0  0  0  0  0
   24.2069   37.4830    8.2285 N   0  0  0  0  0  0  0  0  0  0  0  0
   28.1029   37.4518    9.6135 N   0  0  0  0  0  0  0  0  0  0  0  0
   23.2328   38.5346   10.4933 S   0  0  0  0  0  0  0  0  0  0  0  0
  2  3  1  0
  3  4  2  0
  5  6  1  0
  6  7  2  0
  3  7  1  0
  1  8  1  0
  2  8  1  0
  5  9  2  0
  4  9  1  0
  2 10  2  0
M  END
