7ZXZ_K9R_B_201
     RDKit          3D

 62 65  0  0  0  0  0  0  0  0999 V2000
   15.8711   -2.7098  -10.5016 N   0  0  0  0  0  0  0  0  0  0  0  0
   10.9758   -0.6572   -7.2196 C   0  0  0  0  0  0  0  0  0  0  0  0
   11.7650   -1.5429   -6.2435 C   0  0  0  0  0  0  0  0  0  0  0  0
   11.3867   -4.0014   -5.6880 N   0  0  0  0  0  0  0  0  0  0  0  0
   11.7518   -2.9938   -6.6420 C   0  0  0  0  0  0  0  0  0  0  0  0
   14.2888   -4.0929   -5.0300 O   0  0  0  0  0  0  0  0  0  0  0  0
   14.1358   -1.8818   -9.0526 C   0  0  1  0  0  0  0  0  0  0  0  0
   11.6130   -2.4988   -8.8301 C   0  0  0  0  0  0  0  0  0  0  0  0
   11.2568   -1.0112   -8.6880 C   0  0  0  0  0  0  0  0  0  0  0  0
   13.0672   -2.7920   -8.4153 C   0  0  1  0  0  0  0  0  0  0  0  0
   15.2536   -4.0798   -8.5611 C   0  0  0  0  0  0  0  0  0  0  0  0
   12.0211   -3.3156   -7.8315 O   0  0  0  0  0  0  0  0  0  0  0  0
   15.4811   -2.6655   -9.0950 C   0  0  1  0  0  0  0  0  0  0  0  0
   13.8339   -1.5535  -10.4463 N   0  0  0  0  0  0  0  0  0  0  0  0
   13.5102   -4.5055   -8.8255 S   0  0  0  0  0  0  0  0  0  0  0  0
   14.8793   -2.0478  -11.2473 C   0  0  0  0  0  0  0  0  0  0  0  0
   14.9275   -1.9037  -12.4963 O   0  0  0  0  0  0  0  0  0  0  0  0
   12.2087   -5.1958   -5.4642 C   0  0  1  0  0  0  0  0  0  0  0  0
   11.8756   -6.3169   -6.4698 C   0  0  0  0  0  0  0  0  0  0  0  0
   13.1354   -6.5272   -7.2457 C   0  0  0  0  0  0  0  0  0  0  0  0
   13.2269   -7.3510   -8.1447 O   0  0  0  0  0  0  0  0  0  0  0  0
   14.2711   -5.6608   -6.8229 C   0  0  2  0  0  0  0  0  0  0  0  0
   13.6555   -4.8861   -5.7101 C   0  0  0  0  0  0  0  0  0  0  0  0
   14.7474   -4.7548   -7.9396 C   0  0  0  0  0  0  0  0  0  0  0  0
   14.7104   -5.2079   -9.2676 C   0  0  0  0  0  0  0  0  0  0  0  0
   15.1514   -4.3860  -10.3171 C   0  0  0  0  0  0  0  0  0  0  0  0
   15.0675   -4.8642  -11.7385 C   0  0  0  0  0  0  0  0  0  0  0  0
   15.8847   -3.6675  -12.8370 S   0  0  0  0  0  0  0  0  0  0  0  0
   15.6189   -3.0945  -10.0350 C   0  0  0  0  0  0  0  0  0  0  0  0
   15.6798   -2.6343   -8.7113 C   0  0  0  0  0  0  0  0  0  0  0  0
   15.2350   -3.4623   -7.6703 C   0  0  0  0  0  0  0  0  0  0  0  0
   16.1586   -1.2414   -8.4160 C   0  0  0  0  0  0  0  0  0  0  0  0
   14.8837   -0.0331   -8.8846 S   0  0  0  0  0  0  0  0  0  0  0  0
   16.7274   -3.1632  -10.8903 H   0  0  0  0  0  0  0  0  0  0  0  0
    9.8871   -0.7419   -7.0082 H   0  0  0  0  0  0  0  0  0  0  0  0
   11.2685    0.4009   -7.0431 H   0  0  0  0  0  0  0  0  0  0  0  0
   11.3104   -1.4572   -5.2330 H   0  0  0  0  0  0  0  0  0  0  0  0
   12.8095   -1.1695   -6.1720 H   0  0  0  0  0  0  0  0  0  0  0  0
   10.4822   -3.8925   -5.1772 H   0  0  0  0  0  0  0  0  0  0  0  0
   14.2487   -0.9422   -8.4682 H   0  0  0  0  0  0  0  0  0  0  0  0
   10.9363   -3.0833   -8.1685 H   0  0  0  0  0  0  0  0  0  0  0  0
   11.4291   -2.8434   -9.8699 H   0  0  0  0  0  0  0  0  0  0  0  0
   10.3579   -0.7756   -9.2969 H   0  0  0  0  0  0  0  0  0  0  0  0
   12.1043   -0.3999   -9.0660 H   0  0  0  0  0  0  0  0  0  0  0  0
   13.1422   -2.6967   -7.3082 H   0  0  0  0  0  0  0  0  0  0  0  0
   15.9125   -4.8209   -9.0607 H   0  0  0  0  0  0  0  0  0  0  0  0
   15.4616   -4.1038   -7.4692 H   0  0  0  0  0  0  0  0  0  0  0  0
   16.2691   -2.1455   -8.5060 H   0  0  0  0  0  0  0  0  0  0  0  0
   13.0546   -0.9447  -10.7842 H   0  0  0  0  0  0  0  0  0  0  0  0
   12.0678   -5.5729   -4.4266 H   0  0  0  0  0  0  0  0  0  0  0  0
   11.6104   -7.2536   -5.9317 H   0  0  0  0  0  0  0  0  0  0  0  0
   11.0476   -6.0494   -7.1608 H   0  0  0  0  0  0  0  0  0  0  0  0
   15.0913   -6.2964   -6.4243 H   0  0  0  0  0  0  0  0  0  0  0  0
   14.3334   -6.1996   -9.4887 H   0  0  0  0  0  0  0  0  0  0  0  0
   14.0060   -4.9789  -12.0477 H   0  0  0  0  0  0  0  0  0  0  0  0
   15.5607   -5.8548  -11.8458 H   0  0  0  0  0  0  0  0  0  0  0  0
   15.6159   -4.4382  -13.9860 H   0  0  0  0  0  0  0  0  0  0  0  0
   15.9343   -2.4471  -10.8459 H   0  0  0  0  0  0  0  0  0  0  0  0
   15.2632   -3.0987   -6.6505 H   0  0  0  0  0  0  0  0  0  0  0  0
   17.0951   -1.0233   -8.9721 H   0  0  0  0  0  0  0  0  0  0  0  0
   16.3776   -1.1305   -7.3327 H   0  0  0  0  0  0  0  0  0  0  0  0
   15.0147   -0.3092  -10.2610 H   0  0  0  0  0  0  0  0  0  0  0  0
  2  3  1  0
  3  5  1  0
  4  5  1  0
  8  9  1  0
  2  9  1  0
  7 10  1  0
 10  8  1  0
  5 12  2  0
  1 13  1  0
 13 11  1  0
  7 13  1  0
  7 14  1  0
 11 15  1  0
 10 15  1  0
  1 16  1  0
 14 16  1  0
 16 17  2  0
 18  4  1  0
 18 19  1  0
 19 20  1  0
 20 21  2  0
 20 22  1  0
 18 23  1  0
 22 23  1  0
  6 23  2  0
 22 24  1  0
 24 25  4  0
 25 26  4  0
 26 27  1  0
 27 28  1  0
 26 29  4  0
 29 30  4  0
 24 31  4  0
 30 31  4  0
 30 32  1  0
 32 33  1  0
  1 34  1  0
  2 35  1  0
  2 36  1  0
  3 37  1  0
  3 38  1  0
  4 39  1  0
  7 40  1  6
  8 41  1  0
  8 42  1  0
  9 43  1  0
  9 44  1  0
 10 45  1  6
 11 46  1  0
 11 47  1  0
 13 48  1  6
 14 49  1  0
 18 50  1  6
 19 51  1  0
 19 52  1  0
 22 53  1  6
 25 54  1  0
 27 55  1  0
 27 56  1  0
 28 57  1  0
 29 58  1  0
 31 59  1  0
 32 60  1  0
 32 61  1  0
 33 62  1  0
M  END
