6XAF_GDP_B_1602
     RDKit          3D

 43 45  0  0  0  0  0  0  0  0999 V2000
   17.7686   -2.7467   12.2985 P   0  0  1  0  0  5  0  0  0  0  0  0
   16.6083   -3.5424   12.8530 O   0  0  0  0  0  0  0  0  0  0  0  0
   17.2163   -1.7982   11.0117 O   0  0  0  0  0  0  0  0  0  0  0  0
   18.3794   -1.7268   13.5039 O   0  0  0  0  0  0  0  0  0  0  0  0
   18.9620   -3.8139   11.7180 O   0  0  0  0  0  0  0  0  0  0  0  0
   18.5255   -5.3933   12.1868 P   0  0  1  0  0  5  0  0  0  0  0  0
   17.1196   -5.4209   12.7468 O   0  0  0  0  0  0  0  0  0  0  0  0
   18.5765   -6.3987   10.8258 O   0  0  0  0  0  0  0  0  0  0  0  0
   19.6098   -5.9825   13.3639 O   0  0  0  0  0  0  0  0  0  0  0  0
   20.4643   -6.9176   12.7461 C   0  0  1  0  0  0  0  0  0  0  0  0
   21.5133   -7.4214   13.7484 C   0  0  1  0  0  0  0  0  0  0  0  0
   22.5046   -6.4351   13.9336 O   0  0  0  0  0  0  0  0  0  0  0  0
   20.9041   -7.7850   15.1047 C   0  0  1  0  0  0  0  0  0  0  0  0
   21.4822   -8.9640   15.6189 O   0  0  0  0  0  0  0  0  0  0  0  0
   21.2182   -6.5782   15.9581 C   0  0  1  0  0  0  0  0  0  0  0  0
   21.4950   -6.9561   17.2835 O   0  0  0  0  0  0  0  0  0  0  0  0
   22.4471   -5.9714   15.2689 C   0  0  2  0  0  0  0  0  0  0  0  0
   22.4351   -4.4995   15.2776 N   0  0  0  0  0  0  0  0  0  0  0  0
   21.8352   -3.6494   16.1580 C   0  0  0  0  0  0  0  0  0  0  0  0
   22.1409   -2.3396   15.9467 N   0  0  0  0  0  0  0  0  0  0  0  0
   22.9843   -2.3983   14.9018 C   0  0  0  0  0  0  0  0  0  0  0  0
   23.6449   -1.3703   14.2454 C   0  0  0  0  0  0  0  0  0  0  0  0
   23.4854   -0.1688   14.5890 O   0  0  0  0  0  0  0  0  0  0  0  0
   24.4771   -1.7002   13.2110 N   0  0  0  0  0  0  0  0  0  0  0  0
   24.6596   -3.0118   12.8377 C   0  0  0  0  0  0  0  0  0  0  0  0
   25.5296   -3.3352   11.7535 N   0  0  0  0  0  0  0  0  0  0  0  0
   24.0034   -4.0145   13.4981 N   0  0  0  0  0  0  0  0  0  0  0  0
   23.1727   -3.6783   14.5149 C   0  0  0  0  0  0  0  0  0  0  0  0
   16.9344   -0.9465   11.4316 H   0  0  0  0  0  0  0  0  0  0  0  0
   18.2302   -0.8111   13.1577 H   0  0  0  0  0  0  0  0  0  0  0  0
   19.4812   -6.2644   10.4463 H   0  0  0  0  0  0  0  0  0  0  0  0
   19.8953   -7.7991   12.3714 H   0  0  0  0  0  0  0  0  0  0  0  0
   21.0030   -6.4456   11.8932 H   0  0  0  0  0  0  0  0  0  0  0  0
   21.9929   -8.3198   13.3004 H   0  0  0  0  0  0  0  0  0  0  0  0
   19.8038   -7.9388   15.0413 H   0  0  0  0  0  0  0  0  0  0  0  0
   22.1411   -8.7080   16.3174 H   0  0  0  0  0  0  0  0  0  0  0  0
   20.3475   -5.8825   15.9217 H   0  0  0  0  0  0  0  0  0  0  0  0
   21.9845   -6.2035   17.7029 H   0  0  0  0  0  0  0  0  0  0  0  0
   23.3688   -6.3164   15.7878 H   0  0  0  0  0  0  0  0  0  0  0  0
   21.1831   -3.9666   16.9586 H   0  0  0  0  0  0  0  0  0  0  0  0
   24.9829   -0.9422   12.6989 H   0  0  0  0  0  0  0  0  0  0  0  0
   26.1073   -4.2043   11.7831 H   0  0  0  0  0  0  0  0  0  0  0  0
   25.5955   -2.7122   10.9182 H   0  0  0  0  0  0  0  0  0  0  0  0
  1  2  2  0
  1  3  1  6
  1  4  1  0
  1  5  1  0
  6  5  1  6
  6  7  2  0
  6  8  1  0
  6  9  1  0
  9 10  1  0
 11 10  1  0
 11 12  1  0
 11 13  1  0
 13 14  1  0
 13 15  1  0
 15 16  1  0
 12 17  1  0
 15 17  1  0
 17 18  1  0
 18 19  1  0
 19 20  2  0
 20 21  1  0
 21 22  1  0
 22 23  2  0
 22 24  1  0
 24 25  1  0
 25 26  1  0
 25 27  2  0
 18 28  1  0
 21 28  2  0
 27 28  1  0
  3 29  1  0
  4 30  1  0
  8 31  1  0
 10 32  1  6
 10 33  1  0
 11 34  1  6
 13 35  1  6
 14 36  1  0
 15 37  1  1
 16 38  1  0
 17 39  1  1
 19 40  1  0
 24 41  1  0
 26 42  1  0
 26 43  1  0
M  END
