7O0N_CDP_B_304
     RDKit          3D

 40 41  0  0  0  0  0  0  0  0999 V2000
    8.0859   21.1547   31.5146 O   0  0  0  0  0  0  0  0  0  0  0  0
    8.5783   20.3371   30.3317 P   0  0  2  0  0  5  0  0  0  0  0  0
    7.4069   19.8584   29.5589 O   0  0  0  0  0  0  0  0  0  0  0  0
    9.3969   19.1977   30.8993 O   0  0  0  0  0  0  0  0  0  0  0  0
    9.5824   21.3204   29.5132 O   0  0  0  0  0  0  0  0  0  0  0  0
    9.3459   22.0894   28.1085 P   0  0  1  0  0  5  0  0  0  0  0  0
    7.9395   22.0908   27.6125 O   0  0  0  0  0  0  0  0  0  0  0  0
    9.8757   23.4719   28.3097 O   0  0  0  0  0  0  0  0  0  0  0  0
   10.2404   21.3165   26.9537 O   0  0  0  0  0  0  0  0  0  0  0  0
   11.5327   20.8946   27.2810 C   0  0  0  0  0  0  0  0  0  0  0  0
   11.7588   19.6293   26.7224 C   0  0  2  0  0  0  0  0  0  0  0  0
   11.0202   18.6066   27.5263 O   0  0  0  0  0  0  0  0  0  0  0  0
   13.2852   19.1586   26.8170 C   0  0  2  0  0  0  0  0  0  0  0  0
   13.6129   18.4655   25.5182 O   0  0  0  0  0  0  0  0  0  0  0  0
   13.3452   18.3868   27.8350 C   0  0  2  0  0  0  0  0  0  0  0  0
   14.3740   17.3257   27.7361 O   0  0  0  0  0  0  0  0  0  0  0  0
   11.8843   17.6473   27.7743 C   0  0  1  0  0  0  0  0  0  0  0  0
   11.4144   17.0348   28.9532 N   0  0  0  0  0  4  0  0  0  0  0  0
   12.4185   16.3754   29.8105 C   0  0  0  0  0  0  0  0  0  0  0  0
   13.5732   16.4178   29.5372 O   0  0  0  0  0  0  0  0  0  0  0  0
   11.9686   15.6827   31.0189 N   0  0  0  0  0  0  0  0  0  0  0  0
   10.5838   15.6185   31.3682 C   0  0  0  0  0  0  0  0  0  0  0  0
   10.1896   14.9253   32.5503 N   0  0  0  0  0  0  0  0  0  0  0  0
    9.5715   16.2572   30.5002 C   0  0  0  0  0  0  0  0  0  0  0  0
   10.0225   16.9511   29.3016 C   0  0  0  0  0  0  0  0  0  0  0  0
    7.4772   20.6190   32.0470 H   0  0  0  0  0  0  0  0  0  0  0  0
    8.8167   18.5972   31.3929 H   0  0  0  0  0  0  0  0  0  0  0  0
    9.3497   23.9242   28.9877 H   0  0  0  0  0  0  0  0  0  0  0  0
   12.2459   21.5906   26.8916 H   0  0  0  0  0  0  0  0  0  0  0  0
   11.6354   20.8419   28.3448 H   0  0  0  0  0  0  0  0  0  0  0  0
   11.4519   19.7063   25.7003 H   0  0  0  0  0  0  0  0  0  0  0  0
   13.9946   19.9493   26.9448 H   0  0  0  0  0  0  0  0  0  0  0  0
   12.9858   17.7402   25.3715 H   0  0  0  0  0  0  0  0  0  0  0  0
   13.5848   18.9407   28.7185 H   0  0  0  0  0  0  0  0  0  0  0  0
   14.2075   16.7863   26.9473 H   0  0  0  0  0  0  0  0  0  0  0  0
   11.9885   16.8627   27.0543 H   0  0  0  0  0  0  0  0  0  0  0  0
   10.8698   14.5027   33.1230 H   0  0  0  0  0  0  0  0  0  0  0  0
    9.2374   14.8694   32.7937 H   0  0  0  0  0  0  0  0  0  0  0  0
    8.5683   16.2124   30.7381 H   0  0  0  0  0  0  0  0  0  0  0  0
    9.3234   17.3949   28.6856 H   0  0  0  0  0  0  0  0  0  0  0  0
  2  1  1  6
  2  3  2  0
  2  4  1  0
  2  5  1  0
  6  5  1  6
  6  7  2  0
  6  8  1  0
  6  9  1  0
  9 10  1  0
 11 10  1  0
 11 12  1  0
 11 13  1  0
 13 14  1  0
 13 15  1  0
 15 16  1  0
 12 17  1  0
 15 17  1  0
 17 18  1  0
 18 19  4  0
 19 20  2  0
 19 21  4  0
 21 22  4  0
 22 23  1  0
 22 24  4  0
 18 25  4  0
 24 25  4  0
  1 26  1  0
  4 27  1  0
  8 28  1  0
 10 29  1  0
 10 30  1  0
 11 31  1  1
 13 32  1  6
 14 33  1  0
 15 34  1  6
 16 35  1  0
 17 36  1  1
 23 37  1  0
 23 38  1  0
 24 39  1  0
 25 40  1  0
M  CHG  1  18   1
M  END
