7S9H_7PP_A_301
     RDKit          3D

 53 55  0  0  0  0  0  0  0  0999 V2000
   11.0293    7.7371   -3.6594 Cl  0  0  0  0  0  0  0  0  0  0  0  0
   11.5531    7.7641   -5.3335 C   0  0  0  0  0  0  0  0  0  0  0  0
   11.0563    8.7099   -6.1829 N   0  0  0  0  0  0  0  0  0  0  0  0
   11.4393    8.7683   -7.4980 C   0  0  0  0  0  0  0  0  0  0  0  0
   10.8949    9.7707   -8.3526 N   0  0  0  0  0  0  0  0  0  0  0  0
   12.3393    7.8681   -7.9937 N   0  0  0  0  0  0  0  0  0  0  0  0
   12.8374    6.9229   -7.1594 C   0  0  0  0  0  0  0  0  0  0  0  0
   12.4701    6.8479   -5.8469 C   0  0  0  0  0  0  0  0  0  0  0  0
   13.7219    5.9592   -7.4801 N   0  0  0  0  0  4  0  0  0  0  0  0
   14.3622    5.7333   -8.7762 C   0  0  0  0  0  0  0  0  0  0  0  0
   13.4486    6.1389   -9.9058 C   0  0  0  0  0  0  0  0  0  0  0  0
   12.0394    6.0103   -9.8340 C   0  0  0  0  0  0  0  0  0  0  0  0
   11.3640    5.4635   -8.5986 C   0  0  0  0  0  0  0  0  0  0  0  0
   11.2628    6.4710  -10.9195 C   0  0  0  0  0  0  0  0  0  0  0  0
    9.8686    6.3730  -10.8703 O   0  0  0  0  0  0  0  0  0  0  0  0
    9.1255    6.8595   -9.7590 C   0  0  0  0  0  0  0  0  0  0  0  0
   11.8908    7.0498  -12.0393 C   0  0  0  0  0  0  0  0  0  0  0  0
   11.0988    7.5615  -13.2102 C   0  0  0  0  0  0  0  0  0  0  0  0
   13.2867    7.1160  -12.0716 C   0  0  0  0  0  0  0  0  0  0  0  0
   14.0171    6.6754  -11.0184 N   0  0  0  0  0  0  0  0  0  0  0  0
   13.9389    5.2598   -6.3400 C   0  0  0  0  0  0  0  0  0  0  0  0
   13.1689    5.7834   -5.3064 C   0  0  0  0  0  0  0  0  0  0  0  0
   13.1315    5.2980   -3.9541 C   0  0  0  0  0  0  0  0  0  0  0  0
   13.1035    4.8894   -2.8207 C   0  0  0  0  0  0  0  0  0  0  0  0
   13.0738    4.3914   -1.4380 C   0  0  0  0  0  0  0  0  0  0  0  0
   14.4977    4.1423   -0.8765 C   0  0  2  0  0  0  0  0  0  0  0  0
   14.4277    3.3133    0.4188 C   0  0  0  0  0  0  0  0  0  0  0  0
   15.1726    5.4924   -0.5663 C   0  0  0  0  0  0  0  0  0  0  0  0
   15.2778    3.4335   -1.8112 O   0  0  0  0  0  0  0  0  0  0  0  0
   11.1784    9.8198   -9.3563 H   0  0  0  0  0  0  0  0  0  0  0  0
   10.2061   10.4630   -7.9834 H   0  0  0  0  0  0  0  0  0  0  0  0
   14.6544    4.6677   -8.8889 H   0  0  0  0  0  0  0  0  0  0  0  0
   15.3020    6.3256   -8.8177 H   0  0  0  0  0  0  0  0  0  0  0  0
   11.9053    4.5786   -8.2078 H   0  0  0  0  0  0  0  0  0  0  0  0
   11.3293    6.2509   -7.8176 H   0  0  0  0  0  0  0  0  0  0  0  0
   10.3262    5.1309   -8.8033 H   0  0  0  0  0  0  0  0  0  0  0  0
    8.0437    6.7063   -9.9495 H   0  0  0  0  0  0  0  0  0  0  0  0
    9.4072    6.3150   -8.8348 H   0  0  0  0  0  0  0  0  0  0  0  0
    9.3166    7.9446   -9.6204 H   0  0  0  0  0  0  0  0  0  0  0  0
   10.9400    6.7391  -13.9384 H   0  0  0  0  0  0  0  0  0  0  0  0
   11.6397    8.3883  -13.7183 H   0  0  0  0  0  0  0  0  0  0  0  0
   10.1152    7.9581  -12.8817 H   0  0  0  0  0  0  0  0  0  0  0  0
   13.7978    7.5345  -12.9292 H   0  0  0  0  0  0  0  0  0  0  0  0
   14.6133    4.4165   -6.2602 H   0  0  0  0  0  0  0  0  0  0  0  0
   12.5457    5.1450   -0.8148 H   0  0  0  0  0  0  0  0  0  0  0  0
   12.4791    3.4529   -1.4105 H   0  0  0  0  0  0  0  0  0  0  0  0
   13.8013    3.8249    1.1813 H   0  0  0  0  0  0  0  0  0  0  0  0
   13.9953    2.3095    0.2199 H   0  0  0  0  0  0  0  0  0  0  0  0
   15.4461    3.1661    0.8385 H   0  0  0  0  0  0  0  0  0  0  0  0
   14.5953    6.0531    0.2004 H   0  0  0  0  0  0  0  0  0  0  0  0
   15.2362    6.1171   -1.4831 H   0  0  0  0  0  0  0  0  0  0  0  0
   16.2044    5.3307   -0.1868 H   0  0  0  0  0  0  0  0  0  0  0  0
   15.3099    3.9668   -2.6488 H   0  0  0  0  0  0  0  0  0  0  0  0
  1  2  1  0
  2  3  4  0
  3  4  4  0
  4  5  1  0
  4  6  4  0
  6  7  4  0
  2  8  4  0
  7  8  4  0
  7  9  4  0
  9 10  1  0
 10 11  1  0
 11 12  4  0
 12 13  1  0
 12 14  4  0
 14 15  1  0
 15 16  1  0
 14 17  4  0
 17 18  1  0
 17 19  4  0
 11 20  4  0
 19 20  4  0
  9 21  4  0
  8 22  4  0
 21 22  4  0
 22 23  1  0
 23 24  3  0
 24 25  1  0
 25 26  1  0
 26 27  1  0
 26 28  1  0
 26 29  1  1
  5 30  1  0
  5 31  1  0
 10 32  1  0
 10 33  1  0
 13 34  1  0
 13 35  1  0
 13 36  1  0
 16 37  1  0
 16 38  1  0
 16 39  1  0
 18 40  1  0
 18 41  1  0
 18 42  1  0
 19 43  1  0
 21 44  1  0
 25 45  1  0
 25 46  1  0
 27 47  1  0
 27 48  1  0
 27 49  1  0
 28 50  1  0
 28 51  1  0
 28 52  1  0
 29 53  1  0
M  CHG  1   9   1
M  END
