7AMC_73B_B_201
     RDKit          3D

 54 57  0  0  0  0  0  0  0  0999 V2000
   37.8000   54.9197   69.2117 C   0  0  0  0  0  0  0  0  0  0  0  0
   38.9709   55.2379   68.2896 C   0  0  1  0  0  0  0  0  0  0  0  0
   40.3198   55.2962   69.0079 C   0  0  0  0  0  0  0  0  0  0  0  0
   41.4597   55.1014   68.0755 C   0  0  1  0  0  0  0  0  0  0  0  0
   42.7563   55.3280   68.7615 N   0  0  0  0  0  0  0  0  0  0  0  0
   43.5796   54.2345   69.1287 C   0  0  0  0  0  0  0  0  0  0  0  0
   43.7351   53.9105   70.4685 C   0  0  0  0  0  0  0  0  0  0  0  0
   44.5232   52.8283   70.7852 C   0  0  0  0  0  0  0  0  0  0  0  0
   45.0925   52.0693   69.8368 C   0  0  0  0  0  0  0  0  0  0  0  0
   46.0837   50.6974   70.3206 Cl  0  0  0  0  0  0  0  0  0  0  0  0
   44.9501   52.3670   68.5239 C   0  0  0  0  0  0  0  0  0  0  0  0
   44.1703   53.4541   68.1618 C   0  0  0  0  0  0  0  0  0  0  0  0
   41.3561   53.6379   67.5911 C   0  0  0  0  0  0  0  0  0  0  0  0
   42.3777   52.7072   67.6016 C   0  0  0  0  0  0  0  0  0  0  0  0
   42.1445   51.3853   67.2093 C   0  0  0  0  0  0  0  0  0  0  0  0
   40.8629   50.9861   66.8508 C   0  0  0  0  0  0  0  0  0  0  0  0
   39.8260   51.8880   66.8403 C   0  0  0  0  0  0  0  0  0  0  0  0
   40.0893   53.2312   67.1702 C   0  0  0  0  0  0  0  0  0  0  0  0
   39.0372   54.2718   67.1850 N   0  0  0  0  0  0  0  0  0  0  0  0
   38.1002   54.4420   66.1094 C   0  0  0  0  0  0  0  0  0  0  0  0
   38.3970   53.7890   64.7586 C   0  0  0  0  0  0  0  0  0  0  0  0
   37.1156   55.0822   66.3185 O   0  0  0  0  0  0  0  0  0  0  0  0
   43.3068   50.3883   67.1476 C   0  0  0  0  0  0  0  0  0  0  0  0
   44.6383   50.8784   67.1955 C   0  0  0  0  0  0  0  0  0  0  0  0
   45.7069   50.0211   67.1856 C   0  0  0  0  0  0  0  0  0  0  0  0
   45.4476   48.6522   67.1189 C   0  0  0  0  0  0  0  0  0  0  0  0
   44.1748   48.1601   67.1111 C   0  0  0  0  0  0  0  0  0  0  0  0
   43.1091   49.0249   67.1388 C   0  0  0  0  0  0  0  0  0  0  0  0
   46.5811   47.6488   67.0834 C   0  0  0  0  0  0  0  0  0  0  0  0
   47.7421   48.0488   66.8518 O   0  0  0  0  0  0  0  0  0  0  0  0
   46.3231   46.4498   67.2946 O   0  0  0  0  0  0  0  0  0  0  0  0
   37.7691   55.6335   70.0082 H   0  0  0  0  0  0  0  0  0  0  0  0
   37.9224   53.9373   69.6177 H   0  0  0  0  0  0  0  0  0  0  0  0
   36.8863   54.9649   68.6567 H   0  0  0  0  0  0  0  0  0  0  0  0
   38.7827   56.2192   67.9070 H   0  0  0  0  0  0  0  0  0  0  0  0
   40.3477   54.5278   69.7519 H   0  0  0  0  0  0  0  0  0  0  0  0
   40.4166   56.2669   69.4477 H   0  0  0  0  0  0  0  0  0  0  0  0
   41.4188   55.7961   67.2627 H   0  0  0  0  0  0  0  0  0  0  0  0
   43.0471   56.2466   68.9634 H   0  0  0  0  0  0  0  0  0  0  0  0
   43.2731   54.4650   71.2061 H   0  0  0  0  0  0  0  0  0  0  0  0
   44.6806   52.5943   71.7779 H   0  0  0  0  0  0  0  0  0  0  0  0
   45.4153   51.7929   67.8033 H   0  0  0  0  0  0  0  0  0  0  0  0
   44.0323   53.6788   67.1640 H   0  0  0  0  0  0  0  0  0  0  0  0
   43.3232   52.9909   67.9024 H   0  0  0  0  0  0  0  0  0  0  0  0
   40.6879   50.0031   66.5899 H   0  0  0  0  0  0  0  0  0  0  0  0
   38.8703   51.5857   66.5949 H   0  0  0  0  0  0  0  0  0  0  0  0
   39.3317   53.2708   64.8106 H   0  0  0  0  0  0  0  0  0  0  0  0
   38.4490   54.5434   64.0015 H   0  0  0  0  0  0  0  0  0  0  0  0
   37.6179   53.0960   64.5186 H   0  0  0  0  0  0  0  0  0  0  0  0
   44.8039   51.8962   67.2385 H   0  0  0  0  0  0  0  0  0  0  0  0
   46.6746   50.3773   67.2262 H   0  0  0  0  0  0  0  0  0  0  0  0
   44.0141   47.1411   67.0844 H   0  0  0  0  0  0  0  0  0  0  0  0
   42.1481   48.6491   67.1531 H   0  0  0  0  0  0  0  0  0  0  0  0
   45.4411   46.1833   67.4652 H   0  0  0  0  0  0  0  0  0  0  0  0
  2  1  1  0
  2  3  1  0
  3  4  1  0
  4  5  1  0
  5  6  1  0
  6  7  4  0
  7  8  4  0
  8  9  4  0
  9 10  1  0
  9 11  4  0
 11 12  4  0
  6 12  4  0
  4 13  1  0
 13 14  4  0
 14 15  4  0
 15 16  4  0
 16 17  4  0
 13 18  4  0
 17 18  4  0
  2 19  1  0
 18 19  1  0
 19 20  1  0
 20 21  1  0
 20 22  2  0
 15 23  1  0
 23 24  4  0
 24 25  4  0
 25 26  4  0
 26 27  4  0
 27 28  4  0
 23 28  4  0
 26 29  1  0
 29 30  2  0
 29 31  1  0
  1 32  1  0
  1 33  1  0
  1 34  1  0
  2 35  1  6
  3 36  1  0
  3 37  1  0
  4 38  1  6
  5 39  1  0
  7 40  1  0
  8 41  1  0
 11 42  1  0
 12 43  1  0
 14 44  1  0
 16 45  1  0
 17 46  1  0
 21 47  1  0
 21 48  1  0
 21 49  1  0
 24 50  1  0
 25 51  1  0
 27 52  1  0
 28 53  1  0
 31 54  1  0
M  END
