7XG5_PLP_B_401
     RDKit          3D

 16 16  0  0  0  0  0  0  0  0999 V2000
  -34.3800  -50.1955   31.3917 N   0  0  0  0  0  0  0  0  0  0  0  0
  -33.1554  -49.6355   31.2290 C   0  0  0  0  0  0  0  0  0  0  0  0
  -33.1307  -48.2730   30.6421 C   0  0  0  0  0  0  0  0  0  0  0  0
  -32.0501  -50.3423   31.5965 C   0  0  0  0  0  0  0  0  0  0  0  0
  -30.8120  -49.7619   31.4270 O   0  0  0  0  0  0  0  0  0  0  0  0
  -32.1231  -51.6158   32.1320 C   0  0  0  0  0  0  0  0  0  0  0  0
  -30.8875  -52.2862   32.4872 C   0  0  0  0  0  0  0  0  0  0  0  0
  -29.7484  -51.7572   32.3961 O   0  0  0  0  0  0  0  0  0  0  0  0
  -33.3643  -52.1669   32.2895 C   0  0  0  0  0  0  0  0  0  0  0  0
  -34.4816  -51.4470   31.9162 C   0  0  0  0  0  0  0  0  0  0  0  0
  -33.4801  -53.5328   32.8601 C   0  0  0  0  0  0  0  0  0  0  0  0
  -32.9059  -54.4834   32.0275 O   0  0  0  0  0  0  0  0  0  0  0  0
  -33.0649  -55.9953   32.7303 P   0  0  2  0  0  0  0  0  0  0  0  0
  -32.6202  -57.0935   31.7724 O   0  0  0  0  0  0  0  0  0  0  0  0
  -34.7097  -56.2542   33.0743 O   0  0  0  0  0  0  0  0  0  0  0  0
  -32.1352  -56.0343   34.1429 O   0  0  0  0  0  0  0  0  0  0  0  0
  1  2  2  0
  2  3  1  0
  2  4  1  0
  4  5  1  0
  4  6  2  0
  6  7  1  0
  7  8  2  0
  6  9  1  0
  1 10  1  0
  9 10  2  0
  9 11  1  0
 11 12  1  0
 12 13  1  0
 13 14  2  0
 13 15  1  1
 13 16  1  0
M  END
$$$$
