
     RDKit          3D

 25 27  0  0  0  0  0  0  0  0999 V2000
   33.4361  -21.6814   21.9934 C   0  0  0  0  0  0  0  0  0  0  0  0
   32.4055  -22.2211   21.2284 C   0  0  0  0  0  0  0  0  0  0  0  0
   31.1267  -22.3573   21.7741 C   0  0  0  0  0  0  0  0  0  0  0  0
   30.8676  -21.9635   23.0974 C   0  0  0  0  0  0  0  0  0  0  0  0
   31.9134  -21.4421   23.8717 C   0  0  0  0  0  0  0  0  0  0  0  0
   33.1917  -21.2882   23.3099 C   0  0  0  0  0  0  0  0  0  0  0  0
   31.7674  -21.0191   25.2759 C   0  0  0  0  0  0  0  0  0  0  0  0
   29.4803  -22.0577   23.6053 C   0  0  0  0  0  0  0  0  0  0  0  0
   26.4850  -22.7952   23.2894 C   0  0  0  0  0  0  0  0  0  0  0  0
   32.7103  -20.1309   25.6293 O   0  0  0  0  0  0  0  0  0  0  0  0
   30.8569  -21.3295   26.0206 O   0  0  0  0  0  0  0  0  0  0  0  0
   28.8562  -23.1960   23.6705 N   0  0  0  0  0  0  0  0  0  0  0  0
   27.5460  -23.1393   24.1118 N   0  0  0  0  0  0  0  0  0  0  0  0
   25.3222  -23.4250   23.2854 N   0  0  0  0  0  0  0  0  0  0  0  0
   24.4564  -22.9092   22.3391 C   0  0  0  0  0  0  0  0  0  0  0  0
   24.9428  -21.8251   21.6434 C   0  0  0  0  0  0  0  0  0  0  0  0
   26.5488  -21.4990   22.1270 S   0  0  0  0  0  0  0  0  0  0  0  0
   23.1128  -23.4517   22.1924 C   0  0  0  0  0  0  0  0  0  0  0  0
   22.5478  -23.8362   20.9649 C   0  0  0  0  0  0  0  0  0  0  0  0
   21.2434  -24.3478   20.9188 C   0  0  0  0  0  0  0  0  0  0  0  0
   20.4963  -24.4875   22.0885 C   0  0  0  0  0  0  0  0  0  0  0  0
   21.0523  -24.1267   23.3119 C   0  0  0  0  0  0  0  0  0  0  0  0
   22.3514  -23.6169   23.3636 C   0  0  0  0  0  0  0  0  0  0  0  0
   23.4069  -23.7597   19.4630 Cl  0  0  0  0  0  0  0  0  0  0  0  0
   27.2983  -24.0334   25.2427 C   0  0  0  0  0  0  0  0  0  0  0  0
  1  2  4  0
  2  3  4  0
  3  4  4  0
  4  5  4  0
  1  6  4  0
  5  6  4  0
  5  7  1  0
  4  8  1  0
  7 10  1  0
  7 11  2  0
  8 12  2  0
  9 13  1  0
 12 13  1  0
  9 14  4  0
 14 15  4  0
 15 16  4  0
 16 17  4  0
  9 17  4  0
 15 18  1  0
 18 19  4  0
 19 20  4  0
 20 21  4  0
 21 22  4  0
 22 23  4  0
 18 23  4  0
 19 24  1  0
 13 25  1  0
M  END
