7PRI_7TI_AAA_404
     RDKit          3D

 20 20  0  0  0  0  0  0  0  0999 V2000
   53.2717  -44.4274   -8.8204 Cl  0  0  0  0  0  0  0  0  0  0  0  0
   51.8373  -46.9357  -11.6463 O   0  0  0  0  0  0  0  0  0  0  0  0
   51.4795  -45.5627  -12.0818 S   0  0  2  0  0  0  0  0  0  0  0  0
   50.8728  -45.5204  -13.4728 O   0  0  0  0  0  0  0  0  0  0  0  0
   52.8970  -44.5430  -12.1099 N   0  0  0  0  0  0  0  0  0  0  0  0
   50.3343  -44.8659  -10.9582 C   0  0  0  0  0  0  0  0  0  0  0  0
   49.1365  -44.3538  -11.4376 C   0  0  0  0  0  0  0  0  0  0  0  0
   48.1764  -43.7903  -10.6248 C   0  0  0  0  0  0  0  0  0  0  0  0
   46.6703  -43.1609  -11.2345 S   0  0  2  0  0  0  0  0  0  0  0  0
   45.5689  -44.0783  -10.7375 O   0  0  0  0  0  0  0  0  0  0  0  0
   46.5911  -43.2047  -12.9468 N   0  0  0  0  0  0  0  0  0  0  0  0
   46.3316  -41.8054  -10.7555 O   0  0  0  0  0  0  0  0  0  0  0  0
   48.4495  -43.7484   -9.2785 C   0  0  0  0  0  0  0  0  0  0  0  0
   47.4626  -43.1631   -8.4114 N   0  0  0  0  0  0  0  0  0  0  0  0
   49.6282  -44.2468   -8.7672 C   0  0  0  0  0  0  0  0  0  0  0  0
   50.5762  -44.8077   -9.6023 C   0  0  0  0  0  0  0  0  0  0  0  0
   51.7804  -45.3198   -8.9718 C   0  0  0  0  0  0  0  0  0  0  0  0
   51.7893  -46.5782   -8.4955 C   0  0  0  0  0  0  0  0  0  0  0  0
   50.6691  -47.7944   -9.0395 Cl  0  0  0  0  0  0  0  0  0  0  0  0
   52.9626  -47.0694   -7.2678 Cl  0  0  0  0  0  0  0  0  0  0  0  0
  2  3  2  0
  3  4  2  0
  3  5  1  6
  3  6  1  0
  6  7  2  0
  7  8  1  0
  8  9  1  0
  9 10  2  0
  9 11  1  6
  9 12  2  0
  8 13  2  0
 13 14  1  0
 13 15  1  0
 15 16  2  0
  6 16  1  0
  1 17  1  0
 16 17  1  0
 17 18  2  0
 18 19  1  0
 18 20  1  0
M  END
$$$$
