1HWW_SWA_A_1103
     RDKit          3D

 27 28  0  0  0  0  0  0  0  0999 V2000
   26.9247   67.1248    9.3129 C   0  0  1  0  0  0  0  0  0  0  0  0
   27.5050   67.7199   10.4447 O   0  0  0  0  0  0  0  0  0  0  0  0
   27.8826   66.0380    8.7527 C   0  0  1  0  0  0  0  0  0  0  0  0
   27.2234   65.0325    7.8865 N   0  0  0  0  0  0  0  0  0  0  0  0
   25.9299   65.4891    7.3409 C   0  0  1  0  0  0  0  0  0  0  0  0
   24.9330   65.7809    8.4749 C   0  0  1  0  0  0  0  0  0  0  0  0
   25.5882   66.4706    9.6875 C   0  0  2  0  0  0  0  0  0  0  0  0
   28.1788   64.7046    6.8110 C   0  0  1  0  0  0  0  0  0  0  0  0
   29.4993   65.3982    7.1360 C   0  0  1  0  0  0  0  0  0  0  0  0
   30.1756   65.8017    5.9736 O   0  0  0  0  0  0  0  0  0  0  0  0
   29.0900   66.5865    7.9880 C   0  0  1  0  0  0  0  0  0  0  0  0
   28.7168   67.6694    7.1712 O   0  0  0  0  0  0  0  0  0  0  0  0
   26.7232   67.9054    8.5433 H   0  0  0  0  0  0  0  0  0  0  0  0
   26.9845   67.4097   11.2312 H   0  0  0  0  0  0  0  0  0  0  0  0
   28.2806   65.4782    9.6304 H   0  0  0  0  0  0  0  0  0  0  0  0
   26.0693   66.4070    6.7245 H   0  0  0  0  0  0  0  0  0  0  0  0
   25.4984   64.7014    6.6845 H   0  0  0  0  0  0  0  0  0  0  0  0
   24.1203   66.4252    8.0743 H   0  0  0  0  0  0  0  0  0  0  0  0
   24.4674   64.8279    8.8093 H   0  0  0  0  0  0  0  0  0  0  0  0
   24.8950   67.2375   10.0968 H   0  0  0  0  0  0  0  0  0  0  0  0
   25.7650   65.7179   10.4879 H   0  0  0  0  0  0  0  0  0  0  0  0
   28.3266   63.6044    6.7704 H   0  0  0  0  0  0  0  0  0  0  0  0
   27.8196   65.0410    5.8101 H   0  0  0  0  0  0  0  0  0  0  0  0
   30.1440   64.7203    7.7442 H   0  0  0  0  0  0  0  0  0  0  0  0
   29.6325   65.4796    5.2077 H   0  0  0  0  0  0  0  0  0  0  0  0
   29.9020   66.8807    8.6945 H   0  0  0  0  0  0  0  0  0  0  0  0
   29.5551   68.1315    6.9079 H   0  0  0  0  0  0  0  0  0  0  0  0
  1  2  1  0
  1  3  1  0
  3  4  1  0
  4  5  1  0
  5  6  1  0
  1  7  1  0
  6  7  1  0
  4  8  1  0
  8  9  1  0
  9 10  1  0
  3 11  1  0
  9 11  1  0
 11 12  1  0
  1 13  1  6
  2 14  1  0
  3 15  1  1
  5 16  1  6
  5 17  1  0
  6 18  1  6
  6 19  1  0
  7 20  1  1
  7 21  1  0
  8 22  1  6
  8 23  1  0
  9 24  1  1
 10 25  1  0
 11 26  1  1
 12 27  1  0
M  END
