7MRH_ZMJ_B_201
     RDKit          3D

 42 44  0  0  0  0  0  0  0  0999 V2000
   -3.6314    3.0627   -2.2995 C   0  0  0  0  0  0  0  0  0  0  0  0
   -4.5020    5.1041   -1.3225 C   0  0  0  0  0  0  0  0  0  0  0  0
   -5.5744    4.3917   -0.7808 C   0  0  0  0  0  0  0  0  0  0  0  0
   -4.7025    2.3465   -1.7420 C   0  0  0  0  0  0  0  0  0  0  0  0
   -5.2129   -0.0943   -0.2911 C   0  0  0  0  0  0  0  0  0  0  0  0
   -4.0263    0.4806    0.4715 C   0  0  0  0  0  0  0  0  0  0  0  0
   -2.9952    1.5679   -4.1659 C   0  0  0  0  0  0  0  0  0  0  0  0
   -0.7562    0.8931   -4.6001 C   0  0  0  0  0  0  0  0  0  0  0  0
   -0.2895    1.6805   -3.5285 C   0  0  0  0  0  0  0  0  0  0  0  0
    1.0829    1.7405   -3.2129 C   0  0  0  0  0  0  0  0  0  0  0  0
    1.5333    2.5438   -2.1650 C   0  0  0  0  0  0  0  0  0  0  0  0
    0.6279    3.3005   -1.4242 C   0  0  0  0  0  0  0  0  0  0  0  0
   -0.7357    3.2515   -1.7188 C   0  0  0  0  0  0  0  0  0  0  0  0
   -1.2163    2.4308   -2.7623 C   0  0  0  0  0  0  0  0  0  0  0  0
   -2.5908    2.3540   -3.0794 C   0  0  0  0  0  0  0  0  0  0  0  0
   -2.5670    0.0353   -6.0243 C   0  0  0  0  0  0  0  0  0  0  0  0
   -3.5316    4.4437   -2.0771 C   0  0  0  0  0  0  0  0  0  0  0  0
   -5.6906    3.0076   -0.9869 C   0  0  0  0  0  0  0  0  0  0  0  0
   -2.0908    0.8634   -4.9080 N   0  0  0  0  0  4  0  0  0  0  0  0
   -6.8081    2.3072   -0.4099 N   0  0  0  0  0  0  0  0  0  0  0  0
    0.0619    0.2135   -5.2830 O   0  0  0  0  0  0  0  0  0  0  0  0
   -6.8534    0.7144    1.7139 O   0  0  0  0  0  0  0  0  0  0  0  0
   -7.8930   -0.0933   -0.3436 O   0  0  0  0  0  0  0  0  0  0  0  0
   -6.7379    0.6891    0.2153 S   0  0  2  0  0  6  0  0  0  0  0  0
   -4.4223    6.1704   -1.1550 H   0  0  0  0  0  0  0  0  0  0  0  0
   -6.3189    4.9209   -0.1992 H   0  0  0  0  0  0  0  0  0  0  0  0
   -4.7510    1.2805   -1.9066 H   0  0  0  0  0  0  0  0  0  0  0  0
   -5.2861   -1.1847   -0.0947 H   0  0  0  0  0  0  0  0  0  0  0  0
   -5.0574    0.0564   -1.3791 H   0  0  0  0  0  0  0  0  0  0  0  0
   -3.9291    1.5681    0.2686 H   0  0  0  0  0  0  0  0  0  0  0  0
   -4.1543    0.3194    1.5628 H   0  0  0  0  0  0  0  0  0  0  0  0
   -3.0942   -0.0263    0.1444 H   0  0  0  0  0  0  0  0  0  0  0  0
   -4.0520    1.5130   -4.4047 H   0  0  0  0  0  0  0  0  0  0  0  0
    1.8117    1.1725   -3.7782 H   0  0  0  0  0  0  0  0  0  0  0  0
    2.5896    2.5860   -1.9319 H   0  0  0  0  0  0  0  0  0  0  0  0
    0.9840    3.9314   -0.6199 H   0  0  0  0  0  0  0  0  0  0  0  0
   -1.4024    3.8686   -1.1321 H   0  0  0  0  0  0  0  0  0  0  0  0
   -1.9890    0.2671   -6.9445 H   0  0  0  0  0  0  0  0  0  0  0  0
   -2.4402   -1.0391   -5.7731 H   0  0  0  0  0  0  0  0  0  0  0  0
   -3.6402    0.2194   -6.2484 H   0  0  0  0  0  0  0  0  0  0  0  0
   -2.7007    5.0059   -2.4857 H   0  0  0  0  0  0  0  0  0  0  0  0
   -7.7481    2.7632   -0.4212 H   0  0  0  0  0  0  0  0  0  0  0  0
  2  3  4  0
  1  4  4  0
  5  6  1  0
  8  9  4  0
  9 10  4  0
 10 11  4  0
 11 12  4  0
 12 13  4  0
  9 14  4  0
 13 14  4  0
  7 15  4  0
  1 15  1  0
 14 15  4  0
  1 17  4  0
  2 17  4  0
  4 18  4  0
  3 18  4  0
 16 19  1  0
  7 19  4  0
  8 19  4  0
 18 20  1  0
  8 21  2  0
 22 24  2  0
  5 24  1  0
 23 24  2  0
 24 20  1  1
  2 25  1  0
  3 26  1  0
  4 27  1  0
  5 28  1  0
  5 29  1  0
  6 30  1  0
  6 31  1  0
  6 32  1  0
  7 33  1  0
 10 34  1  0
 11 35  1  0
 12 36  1  0
 13 37  1  0
 16 38  1  0
 16 39  1  0
 16 40  1  0
 17 41  1  0
 20 42  1  0
M  CHG  1  19   1
M  END
