8EAB_VN2_B_302
     RDKit          3D

 49 53  0  0  0  0  0  0  0  0999 V2000
   28.3390   -4.6428   43.6945 C   0  0  0  0  0  0  0  0  0  0  0  0
   27.7545   -3.3999   43.7471 C   0  0  0  0  0  0  0  0  0  0  0  0
   27.1659   -2.8289   42.6117 C   0  0  0  0  0  0  0  0  0  0  0  0
   26.5808   -1.5203   42.7764 C   0  0  0  0  0  0  0  0  0  0  0  0
   26.3173   -0.8913   43.9619 C   0  0  0  0  0  0  0  0  0  0  0  0
   25.7717    0.3812   43.9808 C   0  0  0  0  0  0  0  0  0  0  0  0
   25.4718    1.0638   42.8165 C   0  0  0  0  0  0  0  0  0  0  0  0
   25.7300    0.4465   41.6295 C   0  0  0  0  0  0  0  0  0  0  0  0
   26.2728   -0.8191   41.6063 C   0  0  0  0  0  0  0  0  0  0  0  0
   27.4088   -1.8414   35.8027 C   0  0  0  0  0  0  0  0  0  0  0  0
   24.8848    2.4318   42.8287 C   0  0  1  0  0  0  0  0  0  0  0  0
   25.0093   -3.4608   37.3780 C   0  0  0  0  0  0  0  0  0  0  0  0
   24.8192   -4.7660   36.9600 C   0  0  0  0  0  0  0  0  0  0  0  0
   23.5523   -5.1948   36.6055 C   0  0  0  0  0  0  0  0  0  0  0  0
   22.4941   -4.3081   36.6751 C   0  0  0  0  0  0  0  0  0  0  0  0
   22.6873   -3.0090   37.0917 C   0  0  0  0  0  0  0  0  0  0  0  0
   23.9594   -2.5773   37.4480 C   0  0  0  0  0  0  0  0  0  0  0  0
   21.5468   -2.0940   37.1626 C   0  0  1  0  0  0  0  0  0  0  0  0
   28.3047   -1.8689   34.6249 C   0  0  0  0  0  0  0  0  0  0  0  0
   28.8375   -3.0408   34.1358 C   0  0  0  0  0  0  0  0  0  0  0  0
   30.0893   -1.9333   32.4544 C   0  0  0  0  0  0  0  0  0  0  0  0
   29.5702   -0.7532   32.9250 C   0  0  0  0  0  0  0  0  0  0  0  0
   28.6769   -0.7068   34.0079 C   0  0  0  0  0  0  0  0  0  0  0  0
   26.3764   -3.0766   37.7850 C   0  0  1  0  0  0  0  0  0  0  0  0
   28.1795    0.6182   34.3465 C   0  0  0  0  0  0  0  0  0  0  0  0
   26.7910    0.8166   34.2831 C   0  0  0  0  0  0  0  0  0  0  0  0
   26.2403    2.0455   34.6166 C   0  0  0  0  0  0  0  0  0  0  0  0
   27.0639    3.0876   35.0168 C   0  0  0  0  0  0  0  0  0  0  0  0
   28.4357    2.8672   35.0724 C   0  0  0  0  0  0  0  0  0  0  0  0
   29.0063    1.6581   34.7468 C   0  0  0  0  0  0  0  0  0  0  0  0
   26.4863    4.4148   35.3721 C   0  0  1  0  0  0  0  0  0  0  0  0
   26.8604   -3.7363   38.9943 C   0  0  0  0  0  0  0  0  0  0  0  0
   27.1906   -3.5454   41.4477 C   0  0  0  0  0  0  0  0  0  0  0  0
   27.7870   -4.8029   41.4128 C   0  0  0  0  0  0  0  0  0  0  0  0
   23.5135    2.3665   43.1084 F   0  0  0  0  0  0  0  0  0  0  0  0
   25.4257    3.2398   43.7871 F   0  0  0  0  0  0  0  0  0  0  0  0
   25.0569    3.0269   41.6122 F   0  0  0  0  0  0  0  0  0  0  0  0
   20.9410   -2.2150   38.3954 F   0  0  0  0  0  0  0  0  0  0  0  0
   22.0642   -0.7945   37.1044 F   0  0  0  0  0  0  0  0  0  0  0  0
   20.6745   -2.2116   36.1263 F   0  0  0  0  0  0  0  0  0  0  0  0
   25.4146    4.7318   34.5663 F   0  0  0  0  0  0  0  0  0  0  0  0
   26.0370    4.4074   36.6722 F   0  0  0  0  0  0  0  0  0  0  0  0
   27.4601    5.3946   35.2145 F   0  0  0  0  0  0  0  0  0  0  0  0
   28.3392   -5.3086   42.5301 N   0  0  0  0  0  0  0  0  0  0  0  0
   27.2626   -2.9265   36.6854 N   0  0  0  0  0  0  0  0  0  0  0  0
   29.7012   -3.0673   33.0838 N   0  0  0  0  0  0  0  0  0  0  0  0
   26.6381   -3.0439   40.2446 N   0  0  0  0  0  0  0  0  0  0  0  0
   26.7830   -0.7624   35.9593 O   0  0  0  0  0  0  0  0  0  0  0  0
   27.4475   -4.8280   39.0990 O   0  0  0  0  0  0  0  0  0  0  0  0
  1  2  2  0
  2  3  1  0
  3  4  1  0
  4  5  2  0
  5  6  1  0
  6  7  2  0
  7  8  1  0
  8  9  2  0
  4  9  1  0
  7 11  1  0
 12 13  2  0
 13 14  1  0
 14 15  2  0
 15 16  1  0
 16 17  2  0
 12 17  1  0
 16 18  1  0
 10 19  1  0
 19 20  2  0
 21 22  1  0
 19 23  1  0
 22 23  2  0
 12 24  1  0
 23 25  1  0
 25 26  2  0
 26 27  1  0
 27 28  2  0
 28 29  1  0
 29 30  2  0
 25 30  1  0
 28 31  1  0
 24 32  1  0
  3 33  2  0
 33 34  1  0
 11 35  1  1
 11 36  1  0
 11 37  1  0
 18 38  1  1
 18 39  1  0
 18 40  1  0
 31 41  1  6
 31 42  1  0
 31 43  1  0
  1 44  1  0
 34 44  2  0
 24 45  1  6
 10 45  1  0
 20 46  1  0
 21 46  2  0
 33 47  1  0
 32 47  1  0
 10 48  2  0
 32 49  2  0
M  END
$$$$
