1R9O_FLP_A_501
     RDKit          3D

 31 32  0  0  0  0  0  0  0  0999 V2000
    3.8050   34.1890    4.1786 C   0  0  0  0  0  0  0  0  0  0  0  0
    4.2586   33.1773    3.3265 C   0  0  0  0  0  0  0  0  0  0  0  0
    5.2217   33.4571    2.3397 C   0  0  0  0  0  0  0  0  0  0  0  0
    5.7128   34.7699    2.2177 C   0  0  0  0  0  0  0  0  0  0  0  0
    5.2566   35.7778    3.0728 C   0  0  0  0  0  0  0  0  0  0  0  0
    4.3043   35.4875    4.0529 C   0  0  0  0  0  0  0  0  0  0  0  0
    5.7009   32.3899    1.4276 C   0  0  0  0  0  0  0  0  0  0  0  0
    5.9102   32.6713    0.0673 C   0  0  0  0  0  0  0  0  0  0  0  0
    6.3555   31.6747   -0.8042 C   0  0  0  0  0  0  0  0  0  0  0  0
    6.6036   30.3729   -0.3338 C   0  0  0  0  0  0  0  0  0  0  0  0
    6.4035   30.0938    1.0284 C   0  0  0  0  0  0  0  0  0  0  0  0
    5.9568   31.0895    1.9027 C   0  0  0  0  0  0  0  0  0  0  0  0
    7.0935   29.2844   -1.2679 C   0  0  2  0  0  0  0  0  0  0  0  0
    8.5572   29.5124   -1.6640 C   0  0  2  0  0  0  0  0  0  0  0  0
    6.2022   29.1818   -2.4763 C   0  0  0  0  0  0  0  0  0  0  0  0
    5.3243   28.2792   -2.5306 O   0  0  0  0  0  0  0  0  0  0  0  0
    6.3059   30.1054   -3.5136 O   0  0  0  0  0  0  0  0  0  0  0  0
    5.8111   30.7893    3.2185 F   0  0  0  0  0  0  0  0  0  0  0  0
    3.0624   33.9668    4.9340 H   0  0  0  0  0  0  0  0  0  0  0  0
    3.8449   32.1816    3.4263 H   0  0  0  0  0  0  0  0  0  0  0  0
    6.4586   35.0114    1.4705 H   0  0  0  0  0  0  0  0  0  0  0  0
    5.6428   36.7843    2.9764 H   0  0  0  0  0  0  0  0  0  0  0  0
    3.9518   36.2692    4.7133 H   0  0  0  0  0  0  0  0  0  0  0  0
    5.7142   33.6615   -0.3254 H   0  0  0  0  0  0  0  0  0  0  0  0
    6.5036   31.9203   -1.8479 H   0  0  0  0  0  0  0  0  0  0  0  0
    6.5996   29.1029    1.4191 H   0  0  0  0  0  0  0  0  0  0  0  0
    7.0577   28.3021   -0.7448 H   0  0  0  0  0  0  0  0  0  0  0  0
    9.1878   29.5911   -0.7527 H   0  0  0  0  0  0  0  0  0  0  0  0
    8.6753   30.4431   -2.2586 H   0  0  0  0  0  0  0  0  0  0  0  0
    8.9251   28.6556   -2.2683 H   0  0  0  0  0  0  0  0  0  0  0  0
    5.7242   30.9346   -3.5314 H   0  0  0  0  0  0  0  0  0  0  0  0
  1  2  2  0
  2  3  1  0
  3  4  2  0
  4  5  1  0
  1  6  1  0
  5  6  2  0
  3  7  1  0
  7  8  2  0
  8  9  1  0
  9 10  2  0
 10 11  1  0
  7 12  1  0
 11 12  2  0
 10 13  1  0
 13 14  1  0
 13 15  1  0
 15 16  2  0
 15 17  1  0
 12 18  1  0
  1 19  1  0
  2 20  1  0
  4 21  1  0
  5 22  1  0
  6 23  1  0
  8 24  1  0
  9 25  1  0
 11 26  1  0
 13 27  1  1
 14 28  1  1
 14 29  1  0
 14 30  1  0
 17 31  1  0
M  END
