7A9E_R4W_A_404
     RDKit          3D

  6  5  0  0  0  0  0  0  0  0999 V2000
   10.1424   42.2034    7.9187 C   0  0  0  0  0  0  0  0  0  0  0  0
   11.7886   38.3020    7.3547 C   0  0  0  0  0  0  0  0  0  0  0  0
    9.3020   39.0914    7.7156 O   0  0  0  0  0  0  0  0  0  0  0  0
   11.0363   41.0280    8.1758 C   0  0  0  0  0  0  0  0  0  0  0  0
   10.5149   40.0364    5.7879 O   0  0  0  0  0  0  0  0  0  0  0  0
   10.6250   39.6032    7.2274 S   0  0  1  0  0  0  0  0  0  0  0  0
  1  4  1  0
  3  6  2  0
  4  6  1  0
  6  2  1  6
  5  6  2  0
M  END
$$$$
