@<TRIPOS>MOLECULE
1GKC_NFH_A_1448
 51 50 0 0 0
SMALL
GASTEIGER

@<TRIPOS>ATOM
      1 C          -1.1893    0.0733   -0.9901 C.2     1  UNL1        0.2183
      2 N           1.5443    0.2307   -2.1821 N.am    1  UNL1       -0.1857
      3 O          -2.1268    0.9147   -1.0554 O.2     1  UNL1       -0.2754
      4 C          -0.1595    1.7040    1.8289 C.2     1  UNL1        0.2336
      5 N          -0.4929   -0.1314    0.2521 N.am    1  UNL1       -0.3032
      6 O          -0.7682    2.7201    2.2630 O.2     1  UNL1       -0.2738
      7 N           1.2637    1.7502    1.6477 N.am    1  UNL1       -0.3168
      8 C          -0.7956   -0.6773   -2.2440 C.3     1  UNL1        0.0538
      9 C          -0.4888   -2.1674   -1.9375 C.3     1  UNL1       -0.0380
     10 C          -0.4584   -3.0942   -3.1800 C.3     1  UNL1       -0.0460
     11 C           2.6255   -0.7104   -2.2125 C.2     1  UNL1        0.2250
     12 O           2.6095   -1.6945   -2.9983 O.2     1  UNL1       -0.2772
     13 C           0.3346    0.0656   -2.9954 C.3     1  UNL1        0.0525
     14 O           1.6721    1.3395   -1.4130 O.3     1  UNL1       -0.2927
     15 C          -0.9494    0.4505    1.5226 C.3     1  UNL1        0.1042
     16 C          -0.9391   -0.6011    2.6887 C.3     1  UNL1       -0.0108
     17 C          -1.8584   -3.3030   -3.7797 C.3     1  UNL1       -0.0626
     18 C           0.1451   -4.4533   -2.7995 C.3     1  UNL1       -0.0626
     19 C          -1.6249   -0.0001    3.9371 C.3     1  UNL1       -0.0579
     20 C          -1.7400   -1.8510    2.2588 C.3     1  UNL1       -0.0579
     21 C           0.4897   -1.0425    3.0826 C.3     1  UNL1       -0.0579
     22 C           2.0287    2.9623    1.9098 C.3     1  UNL1        0.0001
     23 H           0.4072   -0.6566    0.2334 H       1  UNL1        0.1495
     24 H           1.7783    0.9018    1.3232 H       1  UNL1        0.1484
     25 H          -1.6840   -0.6495   -2.9084 H       1  UNL1        0.0410
     26 H           0.4836   -2.2383   -1.4085 H       1  UNL1        0.0275
     27 H          -1.2558   -2.5572   -1.2312 H       1  UNL1        0.0275
     28 H           0.1934   -2.6568   -3.9638 H       1  UNL1        0.0296
     29 H           3.4767   -0.5694   -1.5595 H       1  UNL1        0.1274
     30 H          -0.0415    1.0734   -3.2787 H       1  UNL1        0.0496
     31 H           0.5771   -0.4366   -3.9543 H       1  UNL1        0.0496
     32 H           2.1027    2.0123   -2.0004 H       1  UNL1        0.2416
     33 H          -2.0109    0.7640    1.3984 H       1  UNL1        0.0600
     34 H          -1.8180   -4.0535   -4.5979 H       1  UNL1        0.0232
     35 H          -2.5696   -3.6620   -3.0051 H       1  UNL1        0.0232
     36 H          -2.2456   -2.3632   -4.2220 H       1  UNL1        0.0232
     37 H           1.1788   -4.3215   -2.4143 H       1  UNL1        0.0232
     38 H           0.1967   -5.1162   -3.6896 H       1  UNL1        0.0232
     39 H          -0.4690   -4.9493   -2.0170 H       1  UNL1        0.0232
     40 H          -2.6599    0.3276    3.6993 H       1  UNL1        0.0236
     41 H          -1.0592    0.8762    4.3189 H       1  UNL1        0.0236
     42 H          -1.6802   -0.7496    4.7563 H       1  UNL1        0.0236
     43 H          -1.8192   -2.5776    3.0964 H       1  UNL1        0.0236
     44 H          -2.7686   -1.5692    1.9457 H       1  UNL1        0.0236
     45 H          -1.2454   -2.3687    1.4095 H       1  UNL1        0.0236
     46 H           1.0314   -1.4900    2.2250 H       1  UNL1        0.0236
     47 H           0.4488   -1.8097    3.8860 H       1  UNL1        0.0236
     48 H           1.0795   -0.1881    3.4747 H       1  UNL1        0.0236
     49 H           1.9102    3.2597    2.9730 H       1  UNL1        0.0426
     50 H           1.6718    3.7819    1.2513 H       1  UNL1        0.0426
     51 H           3.1050    2.7809    1.7053 H       1  UNL1        0.0426
@<TRIPOS>BOND
     1     1     3    2
     2     1     5   am
     3     4     6    2
     4     4     7   am
     5     1     8    1
     6     8     9    1
     7     9    10    1
     8     2    11   am
     9    11    12    2
    10     8    13    1
    11     2    13    1
    12     2    14    1
    13     4    15    1
    14    15     5    1
    15    15    16    1
    16    10    17    1
    17    10    18    1
    18    16    19    1
    19    16    20    1
    20    16    21    1
    21     7    22    1
    22     5    23    1
    23     7    24    1
    24     8    25    1
    25     9    26    1
    26     9    27    1
    27    10    28    1
    28    11    29    1
    29    13    30    1
    30    13    31    1
    31    14    32    1
    32    15    33    1
    33    17    34    1
    34    17    35    1
    35    17    36    1
    36    18    37    1
    37    18    38    1
    38    18    39    1
    39    19    40    1
    40    19    41    1
    41    19    42    1
    42    20    43    1
    43    20    44    1
    44    20    45    1
    45    21    46    1
    46    21    47    1
    47    21    48    1
    48    22    49    1
    49    22    50    1
    50    22    51    1
