1GKC_NFH_A_1448
     RDKit          3D

 51 50  0  0  0  0  0  0  0  0999 V2000
   -1.1893    0.0733   -0.9901 C   0  0  0  0  0  0  0  0  0  0  0  0
    1.5443    0.2307   -2.1821 N   0  0  0  0  0  0  0  0  0  0  0  0
   -2.1268    0.9147   -1.0554 O   0  0  0  0  0  0  0  0  0  0  0  0
   -0.1595    1.7040    1.8289 C   0  0  0  0  0  0  0  0  0  0  0  0
   -0.4929   -0.1314    0.2521 N   0  0  0  0  0  0  0  0  0  0  0  0
   -0.7682    2.7201    2.2630 O   0  0  0  0  0  0  0  0  0  0  0  0
    1.2637    1.7502    1.6477 N   0  0  0  0  0  0  0  0  0  0  0  0
   -0.7956   -0.6773   -2.2440 C   0  0  2  0  0  0  0  0  0  0  0  0
   -0.4888   -2.1674   -1.9375 C   0  0  0  0  0  0  0  0  0  0  0  0
   -0.4584   -3.0942   -3.1800 C   0  0  0  0  0  0  0  0  0  0  0  0
    2.6255   -0.7104   -2.2125 C   0  0  0  0  0  0  0  0  0  0  0  0
    2.6095   -1.6945   -2.9983 O   0  0  0  0  0  0  0  0  0  0  0  0
    0.3346    0.0656   -2.9954 C   0  0  0  0  0  0  0  0  0  0  0  0
    1.6721    1.3395   -1.4130 O   0  0  0  0  0  0  0  0  0  0  0  0
   -0.9494    0.4505    1.5226 C   0  0  1  0  0  0  0  0  0  0  0  0
   -0.9391   -0.6011    2.6887 C   0  0  0  0  0  0  0  0  0  0  0  0
   -1.8584   -3.3030   -3.7797 C   0  0  0  0  0  0  0  0  0  0  0  0
    0.1451   -4.4533   -2.7995 C   0  0  0  0  0  0  0  0  0  0  0  0
   -1.6249   -0.0001    3.9371 C   0  0  0  0  0  0  0  0  0  0  0  0
   -1.7400   -1.8510    2.2588 C   0  0  0  0  0  0  0  0  0  0  0  0
    0.4897   -1.0425    3.0826 C   0  0  0  0  0  0  0  0  0  0  0  0
    2.0287    2.9623    1.9098 C   0  0  0  0  0  0  0  0  0  0  0  0
    0.4072   -0.6566    0.2334 H   0  0  0  0  0  0  0  0  0  0  0  0
    1.7783    0.9018    1.3232 H   0  0  0  0  0  0  0  0  0  0  0  0
   -1.6840   -0.6495   -2.9084 H   0  0  0  0  0  0  0  0  0  0  0  0
    0.4836   -2.2383   -1.4085 H   0  0  0  0  0  0  0  0  0  0  0  0
   -1.2558   -2.5572   -1.2312 H   0  0  0  0  0  0  0  0  0  0  0  0
    0.1934   -2.6568   -3.9638 H   0  0  0  0  0  0  0  0  0  0  0  0
    3.4767   -0.5694   -1.5595 H   0  0  0  0  0  0  0  0  0  0  0  0
   -0.0415    1.0734   -3.2787 H   0  0  0  0  0  0  0  0  0  0  0  0
    0.5771   -0.4366   -3.9543 H   0  0  0  0  0  0  0  0  0  0  0  0
    2.1027    2.0123   -2.0004 H   0  0  0  0  0  0  0  0  0  0  0  0
   -2.0109    0.7640    1.3984 H   0  0  0  0  0  0  0  0  0  0  0  0
   -1.8180   -4.0535   -4.5979 H   0  0  0  0  0  0  0  0  0  0  0  0
   -2.5696   -3.6620   -3.0051 H   0  0  0  0  0  0  0  0  0  0  0  0
   -2.2456   -2.3632   -4.2220 H   0  0  0  0  0  0  0  0  0  0  0  0
    1.1788   -4.3215   -2.4143 H   0  0  0  0  0  0  0  0  0  0  0  0
    0.1967   -5.1162   -3.6896 H   0  0  0  0  0  0  0  0  0  0  0  0
   -0.4690   -4.9493   -2.0170 H   0  0  0  0  0  0  0  0  0  0  0  0
   -2.6599    0.3276    3.6993 H   0  0  0  0  0  0  0  0  0  0  0  0
   -1.0592    0.8762    4.3189 H   0  0  0  0  0  0  0  0  0  0  0  0
   -1.6802   -0.7496    4.7563 H   0  0  0  0  0  0  0  0  0  0  0  0
   -1.8192   -2.5776    3.0964 H   0  0  0  0  0  0  0  0  0  0  0  0
   -2.7686   -1.5692    1.9457 H   0  0  0  0  0  0  0  0  0  0  0  0
   -1.2454   -2.3687    1.4095 H   0  0  0  0  0  0  0  0  0  0  0  0
    1.0314   -1.4900    2.2250 H   0  0  0  0  0  0  0  0  0  0  0  0
    0.4488   -1.8097    3.8860 H   0  0  0  0  0  0  0  0  0  0  0  0
    1.0795   -0.1881    3.4747 H   0  0  0  0  0  0  0  0  0  0  0  0
    1.9102    3.2597    2.9730 H   0  0  0  0  0  0  0  0  0  0  0  0
    1.6718    3.7819    1.2513 H   0  0  0  0  0  0  0  0  0  0  0  0
    3.1050    2.7809    1.7053 H   0  0  0  0  0  0  0  0  0  0  0  0
  1  3  2  0
  1  5  1  0
  4  6  2  0
  4  7  1  0
  1  8  1  0
  8  9  1  0
  9 10  1  0
  2 11  1  0
 11 12  2  0
  8 13  1  0
  2 13  1  0
  2 14  1  0
  4 15  1  0
 15  5  1  0
 15 16  1  0
 10 17  1  0
 10 18  1  0
 16 19  1  0
 16 20  1  0
 16 21  1  0
  7 22  1  0
  5 23  1  0
  7 24  1  0
  8 25  1  6
  9 26  1  0
  9 27  1  0
 10 28  1  0
 11 29  1  0
 13 30  1  0
 13 31  1  0
 14 32  1  0
 15 33  1  6
 17 34  1  0
 17 35  1  0
 17 36  1  0
 18 37  1  0
 18 38  1  0
 18 39  1  0
 19 40  1  0
 19 41  1  0
 19 42  1  0
 20 43  1  0
 20 44  1  0
 20 45  1  0
 21 46  1  0
 21 47  1  0
 21 48  1  0
 22 49  1  0
 22 50  1  0
 22 51  1  0
M  END
