7P4V_DAT_A_201
     RDKit          3D

 41 43  0  0  0  0  0  0  0  0999 V2000
   35.3822  -11.6062    9.2035 P   0  0  1  0  0  5  0  0  0  0  0  0
   36.6008  -10.7713    9.4931 O   0  0  0  0  0  0  0  0  0  0  0  0
   35.6920  -12.7643    8.2898 O   0  0  0  0  0  0  0  0  0  0  0  0
   34.8210  -12.1055   10.5175 O   0  0  0  0  0  0  0  0  0  0  0  0
   33.2047   -9.6618    9.0211 P   0  0  1  0  0  5  0  0  0  0  0  0
   32.3107   -9.0365    7.9803 O   0  0  0  0  0  0  0  0  0  0  0  0
   32.4140  -10.3983   10.0702 O   0  0  0  0  0  0  0  0  0  0  0  0
   34.2800  -10.7148    8.4212 O   0  0  0  0  0  0  0  0  0  0  0  0
   33.9798   -8.4374    9.7598 O   0  0  0  0  0  0  0  0  0  0  0  0
   35.0993   -8.6184   10.6184 C   0  0  0  0  0  0  0  0  0  0  0  0
   34.9459   -9.9819   11.2794 C   0  0  1  0  0  0  0  0  0  0  0  0
   34.6893  -11.0063   10.2907 O   0  0  0  0  0  0  0  0  0  0  0  0
   36.2261  -10.4280   11.9941 C   0  0  1  0  0  0  0  0  0  0  0  0
   36.2754  -10.0059   13.3568 O   0  0  0  0  0  0  0  0  0  0  0  0
   36.1709  -11.9449   11.9339 C   0  0  0  0  0  0  0  0  0  0  0  0
   35.3772  -12.2172   10.6559 C   0  0  2  0  0  0  0  0  0  0  0  0
   36.3421  -12.5590    9.5913 N   0  0  0  0  0  4  0  0  0  0  0  0
   36.5924  -11.8750    8.4399 C   0  0  0  0  0  0  0  0  0  0  0  0
   37.4428  -12.5845    7.6372 N   0  0  0  0  0  0  0  0  0  0  0  0
   37.7166  -13.7581    8.2495 C   0  0  0  0  0  0  0  0  0  0  0  0
   38.5915  -14.9302    8.0266 C   0  0  0  0  0  0  0  0  0  0  0  0
   39.3302  -15.1092    6.9024 N   0  0  0  0  0  0  0  0  0  0  0  0
   38.6513  -15.8472    9.0204 N   0  0  0  0  0  0  0  0  0  0  0  0
   37.9178  -15.7611   10.1427 C   0  0  0  0  0  0  0  0  0  0  0  0
   37.1159  -14.7253   10.4150 N   0  0  0  0  0  0  0  0  0  0  0  0
   37.0075  -13.7088    9.5512 C   0  0  0  0  0  0  0  0  0  0  0  0
   36.3523  -13.3386    8.7081 H   0  0  0  0  0  0  0  0  0  0  0  0
   35.4915  -12.6372   10.9743 H   0  0  0  0  0  0  0  0  0  0  0  0
   31.9392  -11.1369    9.6580 H   0  0  0  0  0  0  0  0  0  0  0  0
   35.1179   -7.8502   11.3630 H   0  0  0  0  0  0  0  0  0  0  0  0
   36.0138   -8.5657   10.0654 H   0  0  0  0  0  0  0  0  0  0  0  0
   34.1382   -9.8712   11.9725 H   0  0  0  0  0  0  0  0  0  0  0  0
   37.0915  -10.0026   11.5304 H   0  0  0  0  0  0  0  0  0  0  0  0
   35.5100  -10.3630   13.8338 H   0  0  0  0  0  0  0  0  0  0  0  0
   35.6682  -12.3445   12.7898 H   0  0  0  0  0  0  0  0  0  0  0  0
   37.1395  -12.3995   11.9301 H   0  0  0  0  0  0  0  0  0  0  0  0
   34.6756  -13.0129   10.7958 H   0  0  0  0  0  0  0  0  0  0  0  0
   36.1961  -10.9512    8.2062 H   0  0  0  0  0  0  0  0  0  0  0  0
   39.2906  -14.4454    6.1765 H   0  0  0  0  0  0  0  0  0  0  0  0
   39.9057  -15.9029    6.8129 H   0  0  0  0  0  0  0  0  0  0  0  0
   37.9757  -16.5308   10.8276 H   0  0  0  0  0  0  0  0  0  0  0  0
  1  2  2  0
  1  3  1  6
  1  4  1  0
  5  6  2  0
  5  7  1  1
  1  8  1  0
  5  8  1  0
  5  9  1  0
  9 10  1  0
 11 10  1  0
 11 12  1  0
 11 13  1  0
 13 14  1  0
 13 15  1  0
 12 16  1  0
 15 16  1  0
 16 17  1  0
 17 18  4  0
 18 19  4  0
 19 20  4  0
 20 21  4  0
 21 22  1  0
 21 23  4  0
 23 24  4  0
 24 25  4  0
 17 26  4  0
 20 26  4  0
 25 26  4  0
  3 27  1  0
  4 28  1  0
  7 29  1  0
 10 30  1  0
 10 31  1  0
 11 32  1  1
 13 33  1  6
 14 34  1  0
 15 35  1  0
 15 36  1  0
 16 37  1  1
 18 38  1  0
 22 39  1  0
 22 40  1  0
 24 41  1  0
M  CHG  1  17   1
M  END
