1SQ5_PAU_A_6001
     RDKit          3D

 15 14  0  0  0  0  0  0  0  0999 V2000
   24.9589    8.4345    1.1952 O   0  0  0  0  0  0  0  0  0  0  0  0
   25.1234    7.5115   -0.9896 C   0  0  1  0  0  0  0  0  0  0  0  0
   25.8295    7.8035    0.3114 C   0  0  0  0  0  0  0  0  0  0  0  0
   25.0130    8.6789   -1.9074 C   0  0  0  0  0  0  0  0  0  0  0  0
   25.9634    6.3852   -1.6414 C   0  0  0  0  0  0  0  0  0  0  0  0
   23.7587    6.8790   -0.7909 C   0  0  1  0  0  0  0  0  0  0  0  0
   23.2691    6.4626   -2.0591 O   0  0  0  0  0  0  0  0  0  0  0  0
   23.7467    5.7414    0.1358 C   0  0  0  0  0  0  0  0  0  0  0  0
   24.2568    4.6501   -0.3008 O   0  0  0  0  0  0  0  0  0  0  0  0
   23.2389    5.7112    1.4437 N   0  0  0  0  0  0  0  0  0  0  0  0
   23.3197    4.5503    2.2839 C   0  0  0  0  0  0  0  0  0  0  0  0
   22.6282    4.7260    3.6181 C   0  0  0  0  0  0  0  0  0  0  0  0
   23.2838    5.8839    4.3257 C   0  0  0  0  0  0  0  0  0  0  0  0
   22.8405    6.2643    5.6061 O   0  0  0  0  0  0  0  0  0  0  0  0
   24.2302    6.5296    3.7964 O   0  0  0  0  0  0  0  0  0  0  0  0
  1  3  1  0
  2  3  1  0
  2  4  1  6
  2  5  1  0
  2  6  1  0
  6  7  1  6
  6  8  1  0
  8  9  2  0
  8 10  1  0
 10 11  1  0
 11 12  1  0
 12 13  1  0
 13 14  1  0
 13 15  2  0
M  END
$$$$
