1SQ5_PAU_A_6001
     RDKit          3D

 15 14  0  0  0  0  0  0  0  0999 V2000
   47.8083  -13.0721    6.1100 O   0  0  0  0  0  0  0  0  0  0  0  0
   47.9100  -14.9375    7.5805 C   0  0  1  0  0  0  0  0  0  0  0  0
   48.6562  -14.0564    6.6092 C   0  0  0  0  0  0  0  0  0  0  0  0
   47.1441  -16.0455    6.9456 C   0  0  0  0  0  0  0  0  0  0  0  0
   49.0093  -15.5018    8.5142 C   0  0  0  0  0  0  0  0  0  0  0  0
   47.0069  -14.1533    8.5140 C   0  0  1  0  0  0  0  0  0  0  0  0
   46.3965  -15.0656    9.4176 O   0  0  0  0  0  0  0  0  0  0  0  0
   47.6881  -13.0969    9.2710 C   0  0  0  0  0  0  0  0  0  0  0  0
   48.9671  -13.0811    9.1957 O   0  0  0  0  0  0  0  0  0  0  0  0
   47.0997  -12.1039   10.0693 N   0  0  0  0  0  0  0  0  0  0  0  0
   47.8610  -11.2451   10.9313 C   0  0  0  0  0  0  0  0  0  0  0  0
   47.7729  -11.6302   12.3918 C   0  0  0  0  0  0  0  0  0  0  0  0
   46.3132  -11.7084   12.7583 C   0  0  0  0  0  0  0  0  0  0  0  0
   45.9260  -12.3163   13.9671 O   0  0  0  0  0  0  0  0  0  0  0  0
   45.4177  -11.2389   12.0032 O   0  0  0  0  0  0  0  0  0  0  0  0
  1  3  1  0
  2  3  1  0
  2  4  1  6
  2  5  1  0
  2  6  1  0
  6  7  1  1
  6  8  1  0
  8  9  2  0
  8 10  1  0
 10 11  1  0
 11 12  1  0
 12 13  1  0
 13 14  1  0
 13 15  2  0
M  END
$$$$
