1SQ5_PAU_A_6001
     RDKit          3D

 15 14  0  0  0  0  0  0  0  0999 V2000
   33.1553  -19.2456   -4.3405 O   0  0  0  0  0  0  0  0  0  0  0  0
   34.9441  -17.8249   -3.6816 C   0  0  1  0  0  0  0  0  0  0  0  0
   33.7539  -18.0140   -4.5895 C   0  0  0  0  0  0  0  0  0  0  0  0
   35.8400  -16.6991   -4.0651 C   0  0  0  0  0  0  0  0  0  0  0  0
   34.3278  -17.5768   -2.2825 C   0  0  0  0  0  0  0  0  0  0  0  0
   35.7562  -19.0938   -3.5017 C   0  0  1  0  0  0  0  0  0  0  0  0
   36.2652  -19.4834   -4.7708 O   0  0  0  0  0  0  0  0  0  0  0  0
   36.8633  -18.9748   -2.5461 C   0  0  0  0  0  0  0  0  0  0  0  0
   37.8894  -18.3206   -2.9469 O   0  0  0  0  0  0  0  0  0  0  0  0
   36.9276  -19.4970   -1.2450 N   0  0  0  0  0  0  0  0  0  0  0  0
   38.0721  -19.3308   -0.3950 C   0  0  0  0  0  0  0  0  0  0  0  0
   38.2505  -17.9126    0.1008 C   0  0  0  0  0  0  0  0  0  0  0  0
   36.9985  -17.5259    0.8451 C   0  0  0  0  0  0  0  0  0  0  0  0
   36.9274  -16.2809    1.4974 O   0  0  0  0  0  0  0  0  0  0  0  0
   36.0002  -18.2960    0.9008 O   0  0  0  0  0  0  0  0  0  0  0  0
  1  3  1  0
  2  3  1  0
  2  4  1  6
  2  5  1  0
  2  6  1  0
  6  7  1  6
  6  8  1  0
  8  9  2  0
  8 10  1  0
 10 11  1  0
 11 12  1  0
 12 13  1  0
 13 14  1  0
 13 15  2  0
M  END
$$$$
