1SQ5_PAU_A_6001
     RDKit          3D

 15 14  0  0  0  0  0  0  0  0999 V2000
   86.4621   62.1157   19.7686 O   0  0  0  0  0  0  0  0  0  0  0  0
   87.8267   62.1558   17.8222 C   0  0  1  0  0  0  0  0  0  0  0  0
   86.4242   62.1194   18.3773 C   0  0  0  0  0  0  0  0  0  0  0  0
   87.9036   62.1064   16.3360 C   0  0  0  0  0  0  0  0  0  0  0  0
   88.4187   63.4848   18.3533 C   0  0  0  0  0  0  0  0  0  0  0  0
   88.7262   61.0914   18.4221 C   0  0  1  0  0  0  0  0  0  0  0  0
   89.8889   60.9788   17.6117 O   0  0  0  0  0  0  0  0  0  0  0  0
   89.1214   61.3447   19.8124 C   0  0  0  0  0  0  0  0  0  0  0  0
   90.0459   62.2141   19.9888 O   0  0  0  0  0  0  0  0  0  0  0  0
   88.6048   60.7424   20.9699 N   0  0  0  0  0  0  0  0  0  0  0  0
   89.0681   61.0660   22.2892 C   0  0  0  0  0  0  0  0  0  0  0  0
   88.0741   61.8758   23.0924 C   0  0  0  0  0  0  0  0  0  0  0  0
   86.7739   61.1143   23.1153 C   0  0  0  0  0  0  0  0  0  0  0  0
   85.6518   61.6631   23.7636 O   0  0  0  0  0  0  0  0  0  0  0  0
   86.6614   59.9851   22.5631 O   0  0  0  0  0  0  0  0  0  0  0  0
  1  3  1  0
  2  3  1  0
  2  4  1  6
  2  5  1  0
  2  6  1  0
  6  7  1  6
  6  8  1  0
  8  9  2  0
  8 10  1  0
 10 11  1  0
 11 12  1  0
 12 13  1  0
 13 14  1  0
 13 15  2  0
M  END
$$$$
