1SQ5_PAU_A_6001
     RDKit          3D

 15 14  0  0  0  0  0  0  0  0999 V2000
   71.9096  -17.6258   22.8678 O   0  0  0  0  0  0  0  0  0  0  0  0
   69.8124  -16.6992   23.4968 C   0  0  1  0  0  0  0  0  0  0  0  0
   71.3024  -16.4874   23.3900 C   0  0  0  0  0  0  0  0  0  0  0  0
   69.3571  -17.2294   24.8116 C   0  0  0  0  0  0  0  0  0  0  0  0
   69.2029  -15.2997   23.2345 C   0  0  0  0  0  0  0  0  0  0  0  0
   69.2564  -17.5545   22.3737 C   0  0  1  0  0  0  0  0  0  0  0  0
   67.8431  -17.6166   22.5158 O   0  0  0  0  0  0  0  0  0  0  0  0
   69.5922  -17.0796   21.0266 C   0  0  0  0  0  0  0  0  0  0  0  0
   69.5415  -15.8124   20.8439 O   0  0  0  0  0  0  0  0  0  0  0  0
   69.9602  -17.8540   19.9156 N   0  0  0  0  0  0  0  0  0  0  0  0
   70.0980  -17.3067   18.5959 C   0  0  0  0  0  0  0  0  0  0  0  0
   68.8382  -17.4180   17.7656 C   0  0  0  0  0  0  0  0  0  0  0  0
   68.3862  -18.8551   17.8083 C   0  0  0  0  0  0  0  0  0  0  0  0
   67.1848  -19.2306   17.1788 O   0  0  0  0  0  0  0  0  0  0  0  0
   69.0624  -19.7416   18.3994 O   0  0  0  0  0  0  0  0  0  0  0  0
  1  3  1  0
  2  3  1  0
  2  4  1  1
  2  5  1  0
  2  6  1  0
  6  7  1  6
  6  8  1  0
  8  9  2  0
  8 10  1  0
 10 11  1  0
 11 12  1  0
 12 13  1  0
 13 14  1  0
 13 15  2  0
M  END
$$$$
