1SQ5_PAU_A_6001
     RDKit          3D

 15 14  0  0  0  0  0  0  0  0999 V2000
   58.9696  -24.9226   -7.1580 O   0  0  0  0  0  0  0  0  0  0  0  0
   57.0596  -23.6180   -7.7080 C   0  0  1  0  0  0  0  0  0  0  0  0
   57.6846  -24.9912   -7.6883 C   0  0  0  0  0  0  0  0  0  0  0  0
   57.2908  -22.8170   -6.4742 C   0  0  0  0  0  0  0  0  0  0  0  0
   57.6959  -22.9209   -8.9359 C   0  0  0  0  0  0  0  0  0  0  0  0
   55.5782  -23.6490   -8.0343 C   0  0  1  0  0  0  0  0  0  0  0  0
   55.1125  -22.3091   -8.1296 O   0  0  0  0  0  0  0  0  0  0  0  0
   55.2437  -24.3721   -9.2666 C   0  0  0  0  0  0  0  0  0  0  0  0
   55.8510  -23.9918  -10.3287 O   0  0  0  0  0  0  0  0  0  0  0  0
   54.3338  -25.4301   -9.4152 N   0  0  0  0  0  0  0  0  0  0  0  0
   54.0725  -26.0610  -10.6776 C   0  0  0  0  0  0  0  0  0  0  0  0
   53.4205  -27.4199  -10.5457 C   0  0  0  0  0  0  0  0  0  0  0  0
   52.0655  -27.2195   -9.9173 C   0  0  0  0  0  0  0  0  0  0  0  0
   51.2682  -28.3352   -9.6006 O   0  0  0  0  0  0  0  0  0  0  0  0
   51.6202  -26.0662   -9.6641 O   0  0  0  0  0  0  0  0  0  0  0  0
  1  3  1  0
  2  3  1  0
  2  4  1  1
  2  5  1  0
  2  6  1  0
  6  7  1  6
  6  8  1  0
  8  9  2  0
  8 10  1  0
 10 11  1  0
 11 12  1  0
 12 13  1  0
 13 14  1  0
 13 15  2  0
M  END
$$$$
