1SQ5_PAU_A_6001
     RDKit          3D

 15 14  0  0  0  0  0  0  0  0999 V2000
    8.7255   -3.6910  -19.7508 O   0  0  0  0  0  0  0  0  0  0  0  0
    7.4664   -5.2838  -20.9879 C   0  0  1  0  0  0  0  0  0  0  0  0
    7.4386   -4.0169  -20.1690 C   0  0  0  0  0  0  0  0  0  0  0  0
    8.5111   -5.3100  -22.0487 C   0  0  0  0  0  0  0  0  0  0  0  0
    7.7149   -6.4084  -19.9525 C   0  0  0  0  0  0  0  0  0  0  0  0
    6.1151   -5.6303  -21.5843 C   0  0  1  0  0  0  0  0  0  0  0  0
    5.1228   -5.4443  -20.5833 O   0  0  0  0  0  0  0  0  0  0  0  0
    5.7602   -4.8508  -22.7758 C   0  0  0  0  0  0  0  0  0  0  0  0
    5.0915   -3.7772  -22.5715 O   0  0  0  0  0  0  0  0  0  0  0  0
    6.0673   -5.1476  -24.1126 N   0  0  0  0  0  0  0  0  0  0  0  0
    5.7863   -4.2474  -25.1946 C   0  0  0  0  0  0  0  0  0  0  0  0
    7.0301   -3.6604  -25.8251 C   0  0  0  0  0  0  0  0  0  0  0  0
    8.0283   -4.7765  -25.9956 C   0  0  0  0  0  0  0  0  0  0  0  0
    9.3180   -4.4945  -26.4833 O   0  0  0  0  0  0  0  0  0  0  0  0
    7.7372   -5.9708  -25.7100 O   0  0  0  0  0  0  0  0  0  0  0  0
  1  3  1  0
  2  3  1  0
  2  4  1  6
  2  5  1  0
  2  6  1  0
  6  7  1  1
  6  8  1  0
  8  9  2  0
  8 10  1  0
 10 11  1  0
 11 12  1  0
 12 13  1  0
 13 14  1  0
 13 15  2  0
M  END
$$$$
