7UYB_OK0_A_303
     RDKit          3D

 50 53  0  0  0  0  0  0  0  0999 V2000
  -24.8874  -12.2395   -8.5212 C   0  0  0  0  0  0  0  0  0  0  0  0
  -26.2870  -12.0759   -8.3045 C   0  0  0  0  0  0  0  0  0  0  0  0
  -27.0281  -13.1003   -7.6434 C   0  0  0  0  0  0  0  0  0  0  0  0
  -28.5173  -12.9969   -7.4434 C   0  0  1  0  0  0  0  0  0  0  0  0
  -29.2148  -13.3172   -8.7744 C   0  0  0  0  0  0  0  0  0  0  0  0
  -30.7790  -13.2433   -8.6128 C   0  0  0  0  0  0  0  0  0  0  0  0
  -30.5678  -13.8552   -6.1541 C   0  0  0  0  0  0  0  0  0  0  0  0
  -29.0334  -13.9753   -6.3350 C   0  0  0  0  0  0  0  0  0  0  0  0
  -26.3569  -14.2427   -7.1994 C   0  0  0  0  0  0  0  0  0  0  0  0
  -20.1081  -14.2382   -8.8011 C   0  0  0  0  0  0  0  0  0  0  0  0
  -17.9869  -14.3547   -9.8898 F   0  0  0  0  0  0  0  0  0  0  0  0
  -18.6490  -14.7342   -8.8285 C   0  0  1  0  0  0  0  0  0  0  0  0
  -17.9683  -14.3628   -7.7122 F   0  0  0  0  0  0  0  0  0  0  0  0
  -18.5730  -16.0656   -8.8177 F   0  0  0  0  0  0  0  0  0  0  0  0
  -20.5034  -12.9109   -8.5604 C   0  0  0  0  0  0  0  0  0  0  0  0
  -19.4209  -11.5581   -8.7904 S   0  0  2  0  0  6  0  0  0  0  0  0
  -18.3086  -11.8331   -7.9418 O   0  0  0  0  0  0  0  0  0  0  0  0
  -20.1724  -10.2098   -8.4339 N   0  0  0  0  0  0  0  0  0  0  0  0
  -19.0924  -11.5574  -10.1932 O   0  0  0  0  0  0  0  0  0  0  0  0
  -21.8772  -12.6465   -8.2928 C   0  0  0  0  0  0  0  0  0  0  0  0
  -22.3301  -11.3165   -7.8512 C   0  0  0  0  0  0  0  0  0  0  0  0
  -22.0823  -10.1658   -8.4564 N   0  0  0  0  0  4  0  0  0  0  0  0
  -22.5694   -9.2310   -7.6234 N   0  0  0  0  0  0  0  0  0  0  0  0
  -23.0757   -9.8208   -6.5317 N   0  0  0  0  0  0  0  0  0  0  0  0
  -22.9673  -11.1259   -6.6345 N   0  0  0  0  0  0  0  0  0  0  0  0
  -21.0640  -15.2625   -8.9044 C   0  0  0  0  0  0  0  0  0  0  0  0
  -22.4331  -14.9895   -8.6819 C   0  0  0  0  0  0  0  0  0  0  0  0
  -22.8466  -13.6710   -8.3481 C   0  0  0  0  0  0  0  0  0  0  0  0
  -24.2701  -13.4062   -8.0655 C   0  0  0  0  0  0  0  0  0  0  0  0
  -24.9823  -14.4046   -7.4130 C   0  0  0  0  0  0  0  0  0  0  0  0
  -31.2468  -14.1873   -7.4865 N   0  0  0  0  0  0  0  0  0  0  0  0
  -24.3411  -11.5098   -9.0053 H   0  0  0  0  0  0  0  0  0  0  0  0
  -26.7632  -11.2183   -8.6252 H   0  0  0  0  0  0  0  0  0  0  0  0
  -28.7438  -12.0017   -7.1221 H   0  0  0  0  0  0  0  0  0  0  0  0
  -28.9038  -12.6089   -9.5136 H   0  0  0  0  0  0  0  0  0  0  0  0
  -28.9457  -14.3083   -9.0748 H   0  0  0  0  0  0  0  0  0  0  0  0
  -31.0618  -12.2398   -8.3723 H   0  0  0  0  0  0  0  0  0  0  0  0
  -31.2380  -13.5437   -9.5314 H   0  0  0  0  0  0  0  0  0  0  0  0
  -30.8965  -14.5412   -5.4017 H   0  0  0  0  0  0  0  0  0  0  0  0
  -30.8227  -12.8606   -5.8530 H   0  0  0  0  0  0  0  0  0  0  0  0
  -28.5528  -13.7385   -5.4087 H   0  0  0  0  0  0  0  0  0  0  0  0
  -28.8040  -14.9771   -6.6328 H   0  0  0  0  0  0  0  0  0  0  0  0
  -26.8835  -14.9800   -6.7053 H   0  0  0  0  0  0  0  0  0  0  0  0
  -20.4080  -10.2040   -7.4415 H   0  0  0  0  0  0  0  0  0  0  0  0
  -19.5663   -9.4168   -8.6441 H   0  0  0  0  0  0  0  0  0  0  0  0
  -21.6393  -10.0260   -9.3244 H   0  0  0  0  0  0  0  0  0  0  0  0
  -20.7647  -16.2206   -9.1444 H   0  0  0  0  0  0  0  0  0  0  0  0
  -23.1308  -15.7457   -8.7617 H   0  0  0  0  0  0  0  0  0  0  0  0
  -24.5024  -15.2586   -7.0882 H   0  0  0  0  0  0  0  0  0  0  0  0
  -31.0192  -15.1477   -7.7437 H   0  0  0  0  0  0  0  0  0  0  0  0
  1  2  4  0
  2  3  4  0
  3  4  1  0
  4  5  1  0
  5  6  1  0
  7  8  1  0
  4  8  1  0
  3  9  4  0
 10 12  1  0
 12 11  1  1
 12 13  1  0
 12 14  1  0
 10 15  4  0
 15 16  1  0
 16 17  2  0
 16 18  1  6
 16 19  2  0
 15 20  4  0
 20 21  1  0
 21 22  4  0
 22 23  4  0
 23 24  4  0
 24 25  4  0
 21 25  4  0
 10 26  4  0
 26 27  4  0
 20 28  4  0
 27 28  4  0
  1 29  4  0
 28 29  1  0
  9 30  4  0
 29 30  4  0
  7 31  1  0
  6 31  1  0
  1 32  1  0
  2 33  1  0
  4 34  1  6
  5 35  1  0
  5 36  1  0
  6 37  1  0
  6 38  1  0
  7 39  1  0
  7 40  1  0
  8 41  1  0
  8 42  1  0
  9 43  1  0
 18 44  1  0
 18 45  1  0
 22 46  1  0
 26 47  1  0
 27 48  1  0
 30 49  1  0
 31 50  1  0
M  CHG  1  22   1
M  END
