7QK0_EBL_A_201
     RDKit          3D

 38 43  0  0  0  0  0  0  0  0999 V2000
  -16.6767   12.1804   18.2947 C   0  0  0  0  0  0  0  0  0  0  0  0
  -18.2765   10.1882   17.9753 C   0  0  2  0  0  0  0  0  0  0  0  0
  -18.4197    8.8716   17.2753 C   0  0  1  0  0  0  0  0  0  0  0  0
  -19.7199    8.1703   17.2038 C   0  0  0  0  0  0  0  0  0  0  0  0
  -19.0979    8.7891   15.9607 C   0  0  0  0  0  0  0  0  0  0  0  0
  -19.7698   12.1544   18.5857 C   0  0  0  0  0  0  0  0  0  0  0  0
  -21.9447    5.8007   17.3981 C   0  0  0  0  0  0  0  0  0  0  0  0
  -21.8556    4.7700   18.5118 C   0  0  1  0  0  0  0  0  0  0  0  0
  -21.0271    5.2987   19.6629 C   0  0  0  0  0  0  0  0  0  0  0  0
  -20.4804    6.6779   19.3532 C   0  0  1  0  0  0  0  0  0  0  0  0
  -18.8344   12.8744   19.3362 C   0  0  0  0  0  0  0  0  0  0  0  0
  -19.2305   13.9619   20.0974 C   0  0  0  0  0  0  0  0  0  0  0  0
  -18.3787   14.5945   20.7634 O   0  0  0  0  0  0  0  0  0  0  0  0
  -17.4760   12.5848   19.3923 O   0  0  0  0  0  0  0  0  0  0  0  0
  -19.4499   11.0383   17.7616 N   0  0  0  0  0  0  0  0  0  0  0  0
  -16.9862   10.8605   17.7442 C   0  0  1  0  0  0  0  0  0  0  0  0
  -16.8537   10.9862   16.3456 F   0  0  0  0  0  0  0  0  0  0  0  0
  -15.9457    9.9834   18.0991 F   0  0  0  0  0  0  0  0  0  0  0  0
  -20.5498   14.2903   20.0798 N   0  0  0  0  0  0  0  0  0  0  0  0
  -21.0152   15.4094   20.8461 C   0  0  0  0  0  0  0  0  0  0  0  0
  -21.4519   13.5910   19.3530 C   0  0  0  0  0  0  0  0  0  0  0  0
  -22.7810   13.9503   19.3695 C   0  0  0  0  0  0  0  0  0  0  0  0
  -23.6782   13.2149   18.6272 C   0  0  0  0  0  0  0  0  0  0  0  0
  -23.3345   12.1267   17.8557 C   0  0  0  0  0  0  0  0  0  0  0  0
  -21.9839   11.7607   17.8387 C   0  0  0  0  0  0  0  0  0  0  0  0
  -21.1054   12.5015   18.5809 C   0  0  0  0  0  0  0  0  0  0  0  0
  -24.2817   11.4020   17.0939 N   0  0  0  0  0  0  0  0  0  0  0  0
  -24.3169   10.0353   16.8394 C   0  0  0  0  0  0  0  0  0  0  0  0
  -25.2481    9.3658   16.0840 C   0  0  0  0  0  0  0  0  0  0  0  0
  -26.4867   10.2364   15.2188 Cl  0  0  0  0  0  0  0  0  0  0  0  0
  -25.2366    7.9778   15.9266 C   0  0  0  0  0  0  0  0  0  0  0  0
  -24.2628    7.3198   16.5530 N   0  0  0  0  0  0  0  0  0  0  0  0
  -23.3335    7.9112   17.2953 C   0  0  0  0  0  0  0  0  0  0  0  0
  -23.3683    9.2425   17.4294 N   0  0  0  0  0  0  0  0  0  0  0  0
  -22.3356    7.1065   17.9256 N   0  0  0  0  0  0  0  0  0  0  0  0
  -21.6696    7.5836   19.1299 C   0  0  0  0  0  0  0  0  0  0  0  0
  -19.5542    7.1469   20.4350 C   0  0  0  0  0  0  0  0  0  0  0  0
  -23.1292    4.4144   18.9864 O   0  0  0  0  0  0  0  0  0  0  0  0
  2  3  1  0
  3  4  1  1
  4  5  1  0
  3  5  1  0
  7  8  1  0
  8  9  1  0
  9 10  1  0
  6 11  2  0
 11 12  1  0
 12 13  2  0
 11 14  1  0
  1 14  1  0
  6 15  1  0
  2 15  1  6
  2 16  1  0
  1 16  1  0
 16 17  1  6
 16 18  1  0
 12 19  1  0
 19 20  1  0
 19 21  1  0
 21 22  2  0
 22 23  1  0
 23 24  2  0
 24 25  1  0
 25 26  2  0
 21 26  1  0
  6 26  1  0
 24 27  1  0
 27 28  1  0
 28 29  2  0
 29 30  1  0
 29 31  1  0
 31 32  2  0
 32 33  1  0
 33 34  2  0
 28 34  1  0
 33 35  1  0
  7 35  1  0
 10 36  1  0
 35 36  1  0
 10 37  1  1
  8 38  1  1
M  END
$$$$
