5SIS_JSM_A_803
     RDKit          3D

 57 60  0  0  0  0  0  0  0  0999 V2000
   34.5601  110.7291   54.8588 C   0  0  0  0  0  0  0  0  0  0  0  0
   36.2220  111.2999   56.6487 C   0  0  0  0  0  0  0  0  0  0  0  0
   36.5603  111.1262   57.9343 C   0  0  0  0  0  0  0  0  0  0  0  0
   32.4462  109.6853   53.8543 C   0  0  0  0  0  0  0  0  0  0  0  0
   37.3429  107.2030   58.8463 C   0  0  0  0  0  0  0  0  0  0  0  0
   31.4876  108.2943   59.6010 C   0  0  0  0  0  0  0  0  0  0  0  0
   30.5769  107.9234   61.8829 C   0  0  0  0  0  0  0  0  0  0  0  0
   32.7677  109.8367   52.5098 C   0  0  0  0  0  0  0  0  0  0  0  0
   31.2096  109.1412   54.1819 C   0  0  0  0  0  0  0  0  0  0  0  0
   32.5165  109.2234   58.9797 C   0  0  0  0  0  0  0  0  0  0  0  0
   34.1195  107.4275   60.5259 C   0  0  0  0  0  0  0  0  0  0  0  0
   35.4116  107.9346   60.3383 C   0  0  0  0  0  0  0  0  0  0  0  0
   34.2924  109.8737   56.9004 C   0  0  0  0  0  0  0  0  0  0  0  0
   33.2791  109.4003   56.1797 N   0  0  0  0  0  0  0  0  0  0  0  0
   36.0891  109.0980   60.9112 C   0  0  0  0  0  0  0  0  0  0  0  0
   35.1071  110.6868   56.1223 N   0  0  0  0  0  0  0  0  0  0  0  0
   33.0947  107.9578   61.4504 C   0  0  0  0  0  0  0  0  0  0  0  0
   33.4536  109.9234   54.9015 C   0  0  0  0  0  0  0  0  0  0  0  0
   34.6235  109.6769   58.2622 C   0  0  0  0  0  0  0  0  0  0  0  0
   36.0062  107.1287   59.4236 N   0  0  0  0  0  4  0  0  0  0  0  0
   35.1749  106.1264   59.0106 N   0  0  0  0  0  0  0  0  0  0  0  0
   34.0531  106.3076   59.6833 C   0  0  0  0  0  0  0  0  0  0  0  0
   35.7404  110.2789   58.7779 C   0  0  0  0  0  0  0  0  0  0  0  0
   36.2115  110.1965   60.1000 N   0  0  0  0  0  0  0  0  0  0  0  0
   31.7450  108.0513   61.0210 N   0  0  0  0  0  0  0  0  0  0  0  0
   36.5369  109.0636   62.0535 O   0  0  0  0  0  0  0  0  0  0  0  0
   33.4058  108.2959   62.5898 O   0  0  0  0  0  0  0  0  0  0  0  0
   31.9669  109.8690   57.7348 N   0  0  0  0  0  0  0  0  0  0  0  0
   31.3126  111.1718   57.8994 C   0  0  0  0  0  0  0  0  0  0  0  0
   30.2884  108.8412   53.1939 C   0  0  0  0  0  0  0  0  0  0  0  0
   31.8420  109.5297   51.5255 C   0  0  0  0  0  0  0  0  0  0  0  0
   30.6039  109.0288   51.8687 C   0  0  0  0  0  0  0  0  0  0  0  0
   34.9120  111.2595   54.0464 H   0  0  0  0  0  0  0  0  0  0  0  0
   36.8050  111.9011   56.0456 H   0  0  0  0  0  0  0  0  0  0  0  0
   37.3969  111.5916   58.3199 H   0  0  0  0  0  0  0  0  0  0  0  0
   37.8677  108.0349   59.2678 H   0  0  0  0  0  0  0  0  0  0  0  0
   37.2672  107.3290   57.7865 H   0  0  0  0  0  0  0  0  0  0  0  0
   37.8749  106.2998   59.0610 H   0  0  0  0  0  0  0  0  0  0  0  0
   31.5108  107.3589   59.0821 H   0  0  0  0  0  0  0  0  0  0  0  0
   30.5298  108.7638   59.5175 H   0  0  0  0  0  0  0  0  0  0  0  0
   30.8940  107.7491   62.8899 H   0  0  0  0  0  0  0  0  0  0  0  0
   29.9767  107.1022   61.5507 H   0  0  0  0  0  0  0  0  0  0  0  0
   30.0022  108.8251   61.8410 H   0  0  0  0  0  0  0  0  0  0  0  0
   33.7034  110.1805   52.2429 H   0  0  0  0  0  0  0  0  0  0  0  0
   30.9765  108.9595   55.1706 H   0  0  0  0  0  0  0  0  0  0  0  0
   33.3908  108.6607   58.7270 H   0  0  0  0  0  0  0  0  0  0  0  0
   32.7598  109.9894   59.6861 H   0  0  0  0  0  0  0  0  0  0  0  0
   34.0281  109.0846   58.8619 H   0  0  0  0  0  0  0  0  0  0  0  0
   33.2251  105.6973   59.5992 H   0  0  0  0  0  0  0  0  0  0  0  0
   36.6639  110.9881   60.4717 H   0  0  0  0  0  0  0  0  0  0  0  0
   31.2829  109.2289   57.3314 H   0  0  0  0  0  0  0  0  0  0  0  0
   32.0062  111.8684   58.3221 H   0  0  0  0  0  0  0  0  0  0  0  0
   30.4699  111.0679   58.5505 H   0  0  0  0  0  0  0  0  0  0  0  0
   30.9845  111.5292   56.9458 H   0  0  0  0  0  0  0  0  0  0  0  0
   29.3592  108.4745   53.4532 H   0  0  0  0  0  0  0  0  0  0  0  0
   32.0800  109.6763   50.5321 H   0  0  0  0  0  0  0  0  0  0  0  0
   29.9173  108.7959   51.1344 H   0  0  0  0  0  0  0  0  0  0  0  0
  2  3  4  0
  4  8  4  0
  4  9  4  0
  6 10  1  0
 11 12  4  0
 13 14  4  0
 12 15  1  0
 13 16  4  0
  1 16  4  0
  2 16  4  0
 11 17  1  0
 14 18  4  0
  1 18  4  0
  4 18  1  0
 13 19  4  0
 12 20  4  0
  5 20  1  0
 20 21  4  0
 11 22  4  0
 21 22  4  0
 19 23  4  0
  3 23  4  0
 15 24  1  0
 23 24  1  0
 17 25  1  0
  7 25  1  0
  6 25  1  0
 15 26  2  0
 17 27  2  0
 10 28  1  0
 28 29  1  0
  9 30  4  0
  8 31  4  0
 30 32  4  0
 31 32  4  0
  1 33  1  0
  2 34  1  0
  3 35  1  0
  5 36  1  0
  5 37  1  0
  5 38  1  0
  6 39  1  0
  6 40  1  0
  7 41  1  0
  7 42  1  0
  7 43  1  0
  8 44  1  0
  9 45  1  0
 10 46  1  0
 10 47  1  0
 19 48  1  0
 22 49  1  0
 24 50  1  0
 28 51  1  0
 29 52  1  0
 29 53  1  0
 29 54  1  0
 30 55  1  0
 31 56  1  0
 32 57  1  0
M  CHG  1  20   1
M  END
