7JY3_VUD_C_201
     RDKit          3D

 43 46  0  0  0  0  0  0  0  0999 V2000
   -2.5539    5.6817    9.7623 C   0  0  0  0  0  0  0  0  0  0  0  0
   -5.3056    5.8482   10.1623 C   0  0  0  0  0  0  0  0  0  0  0  0
   -4.4410    6.1506   11.2113 C   0  0  0  0  0  0  0  0  0  0  0  0
    0.9752    5.9254    9.9451 C   0  0  0  0  0  0  0  0  0  0  0  0
   -1.6297    5.0446    7.1154 O   0  0  0  0  0  0  0  0  0  0  0  0
    0.5086    7.3235   12.4044 C   0  0  0  0  0  0  0  0  0  0  0  0
    1.8295    7.4626   11.9652 C   0  0  0  0  0  0  0  0  0  0  0  0
   -0.1205    6.4241   10.2401 C   0  0  0  0  0  0  0  0  0  0  0  0
   -0.7030    5.5409    8.0496 C   0  0  0  0  0  0  0  0  0  0  0  0
   -0.4668    6.8054   11.5456 C   0  0  0  0  0  0  0  0  0  0  0  0
   -3.8396    5.5212    6.2519 C   0  0  0  0  0  0  0  0  0  0  0  0
   -3.0252    4.8459    7.3535 C   0  0  2  0  0  0  0  0  0  0  0  0
   -3.4643    5.3459    8.7227 C   0  0  0  0  0  0  0  0  0  0  0  0
   -3.0674    6.0654   11.0086 C   0  0  0  0  0  0  0  0  0  0  0  0
   -4.8078    5.4602    8.9563 N   0  0  0  0  0  4  0  0  0  0  0  0
   -6.5512    5.9315   10.3334 O   0  0  0  0  0  0  0  0  0  0  0  0
   -1.1289    5.6310    9.5906 N   0  0  0  0  0  4  0  0  0  0  0  0
   -0.4720    4.8761    8.6891 C   0  0  0  0  0  0  0  0  0  0  0  0
    0.8808    5.0488    8.8817 C   0  0  0  0  0  0  0  0  0  0  0  0
   -0.2599    6.2603   10.3651 N   0  0  0  0  0  0  0  0  0  0  0  0
   -1.0743    5.9051    9.3576 C   0  0  0  0  0  0  0  0  0  0  0  0
    2.1819    7.0847   10.6657 C   0  0  0  0  0  0  0  0  0  0  0  0
    1.2120    6.5660    9.8003 C   0  0  0  0  0  0  0  0  0  0  0  0
    1.5510    6.1975    8.5377 N   0  0  0  0  0  0  0  0  0  0  0  0
    0.6411    5.6921    7.6615 C   0  0  0  0  0  0  0  0  0  0  0  0
    1.0700    5.3238    6.3485 N   0  0  0  0  0  0  0  0  0  0  0  0
    0.1729    7.6919   13.6653 F   0  0  0  0  0  0  0  0  0  0  0  0
   -4.8285    6.4568   12.1752 H   0  0  0  0  0  0  0  0  0  0  0  0
    1.8902    6.2945   10.3880 H   0  0  0  0  0  0  0  0  0  0  0  0
    2.5819    7.8637   12.6320 H   0  0  0  0  0  0  0  0  0  0  0  0
   -1.4863    6.7036   11.8982 H   0  0  0  0  0  0  0  0  0  0  0  0
   -4.9175    5.2800    6.3727 H   0  0  0  0  0  0  0  0  0  0  0  0
   -3.7186    6.6224    6.2771 H   0  0  0  0  0  0  0  0  0  0  0  0
   -3.5071    5.1504    5.2591 H   0  0  0  0  0  0  0  0  0  0  0  0
   -3.2311    3.7551    7.2768 H   0  0  0  0  0  0  0  0  0  0  0  0
   -2.3969    6.3165   11.8209 H   0  0  0  0  0  0  0  0  0  0  0  0
   -5.4841    5.2331    8.1916 H   0  0  0  0  0  0  0  0  0  0  0  0
   -0.9412    4.2486    7.9421 H   0  0  0  0  0  0  0  0  0  0  0  0
    1.6902    4.5949    8.3262 H   0  0  0  0  0  0  0  0  0  0  0  0
   -2.0965    5.7939    9.6930 H   0  0  0  0  0  0  0  0  0  0  0  0
    3.2069    7.1958   10.3342 H   0  0  0  0  0  0  0  0  0  0  0  0
    0.4100    4.9123    5.6520 H   0  0  0  0  0  0  0  0  0  0  0  0
    2.0664    5.4587    6.0672 H   0  0  0  0  0  0  0  0  0  0  0  0
  2  3  4  0
  6  7  4  0
  5  9  1  0
  8 10  4  0
  6 10  4  0
 12 11  1  0
  5 12  1  0
  1 13  4  0
 12 13  1  0
  1 14  4  0
  3 14  4  0
 13 15  4  0
  2 15  4  0
  2 16  2  0
  1 17  1  0
 17 18  4  0
 18 19  4  0
  4 19  4  0
  4 20  4  0
 17 20  4  0
  9 21  4  0
  8 21  4  0
  7 22  4  0
  8 23  4  0
 22 23  4  0
 23 24  4  0
  9 25  4  0
 24 25  4  0
 25 26  1  0
  6 27  1  0
  3 28  1  0
  4 29  1  0
  7 30  1  0
 10 31  1  0
 11 32  1  0
 11 33  1  0
 11 34  1  0
 12 35  1  6
 14 36  1  0
 15 37  1  0
 18 38  1  0
 19 39  1  0
 21 40  1  0
 22 41  1  0
 26 42  1  0
 26 43  1  0
M  CHG  2  15   1  17   1
M  END
