8CNH_V6U_A_501
     RDKit          3D

 41 43  0  0  0  0  0  0  0  0999 V2000
   -9.9873   -5.2580   -0.6311 C   0  0  0  0  0  0  0  0  0  0  0  0
  -10.0143   -5.6910   -1.9878 C   0  0  0  0  0  0  0  0  0  0  0  0
   -9.6472   -7.0179   -2.2850 C   0  0  0  0  0  0  0  0  0  0  0  0
   -9.2681   -7.9012   -1.2748 C   0  0  0  0  0  0  0  0  0  0  0  0
   -9.2589   -7.4812    0.0522 C   0  0  0  0  0  0  0  0  0  0  0  0
   -9.6197   -6.1730    0.3732 C   0  0  0  0  0  0  0  0  0  0  0  0
  -15.1754   -3.2805   -4.0595 C   0  0  0  0  0  0  0  0  0  0  0  0
  -12.7568   -5.4638    1.8580 C   0  0  0  0  0  0  0  0  0  0  0  0
  -13.1830   -5.1887    0.5579 C   0  0  0  0  0  0  0  0  0  0  0  0
  -12.2640   -4.6483   -0.3534 C   0  0  0  0  0  0  0  0  0  0  0  0
  -10.5936   -4.6759    1.3323 C   0  0  0  0  0  0  0  0  0  0  0  0
  -12.6800   -4.3364   -1.7416 C   0  0  0  0  0  0  0  0  0  0  0  0
  -11.9152   -4.3704   -2.9133 C   0  0  0  0  0  0  0  0  0  0  0  0
  -12.7915   -3.9944   -3.9132 C   0  0  0  0  0  0  0  0  0  0  0  0
  -10.4924   -4.8179   -3.1307 C   0  0  0  0  0  0  0  0  0  0  0  0
  -10.3323   -3.8812   -0.2130 C   0  0  0  0  0  0  0  0  0  0  0  0
   -8.0429   -3.4916    0.6420 C   0  0  0  0  0  0  0  0  0  0  0  0
  -11.4747   -5.2043    2.2206 N   0  0  0  0  0  0  0  0  0  0  0  0
  -10.9935   -4.4015    0.0629 N   0  0  0  0  0  0  0  0  0  0  0  0
  -13.9918   -3.7574   -3.3581 N   0  0  0  0  0  4  0  0  0  0  0  0
  -13.9357   -3.9491   -2.0513 N   0  0  0  0  0  0  0  0  0  0  0  0
   -9.2507   -4.4104    1.7298 N   0  0  0  0  0  0  0  0  0  0  0  0
   -9.3952   -3.0920    0.4582 O   0  0  0  0  0  0  0  0  0  0  0  0
  -11.4978   -3.4421   -0.4175 O   0  0  0  0  0  0  0  0  0  0  0  0
  -13.8699   -6.1436    3.0279 Cl  0  0  0  0  0  0  0  0  0  0  0  0
   -9.6652   -7.3777   -3.3043 H   0  0  0  0  0  0  0  0  0  0  0  0
   -8.9900   -8.9178   -1.5216 H   0  0  0  0  0  0  0  0  0  0  0  0
   -8.9699   -8.1704    0.8350 H   0  0  0  0  0  0  0  0  0  0  0  0
   -9.5945   -5.8677    1.4125 H   0  0  0  0  0  0  0  0  0  0  0  0
  -15.1041   -2.1822   -4.2034 H   0  0  0  0  0  0  0  0  0  0  0  0
  -16.0872   -3.5123   -3.4691 H   0  0  0  0  0  0  0  0  0  0  0  0
  -15.2569   -3.7762   -5.0500 H   0  0  0  0  0  0  0  0  0  0  0  0
  -14.2053   -5.3983    0.2683 H   0  0  0  0  0  0  0  0  0  0  0  0
  -12.5763   -3.9059   -4.9686 H   0  0  0  0  0  0  0  0  0  0  0  0
   -9.8115   -3.9533   -3.2332 H   0  0  0  0  0  0  0  0  0  0  0  0
  -10.4192   -5.3273   -4.1100 H   0  0  0  0  0  0  0  0  0  0  0  0
   -7.5498   -3.6293   -0.3435 H   0  0  0  0  0  0  0  0  0  0  0  0
   -8.0022   -4.4395    1.2193 H   0  0  0  0  0  0  0  0  0  0  0  0
   -7.5046   -2.7031    1.2069 H   0  0  0  0  0  0  0  0  0  0  0  0
   -8.5679   -4.0097    1.0487 H   0  0  0  0  0  0  0  0  0  0  0  0
   -8.9370   -4.6170    2.7040 H   0  0  0  0  0  0  0  0  0  0  0  0
  1  2  4  0
  2  3  4  0
  3  4  4  0
  4  5  4  0
  1  6  4  0
  5  6  4  0
  8  9  4  0
  9 10  4  0
 10 12  1  0
 12 13  4  0
 13 14  4  0
 13 15  1  0
  2 15  1  0
  1 16  1  0
 11 18  4  0
  8 18  4  0
 11 19  4  0
 10 19  4  0
 14 20  4  0
  7 20  1  0
 12 21  4  0
 20 21  4  0
 11 22  1  0
 17 23  1  0
 16 23  1  0
 16 24  2  0
  8 25  1  0
  3 26  1  0
  4 27  1  0
  5 28  1  0
  6 29  1  0
  7 30  1  0
  7 31  1  0
  7 32  1  0
  9 33  1  0
 14 34  1  0
 15 35  1  0
 15 36  1  0
 17 37  1  0
 17 38  1  0
 17 39  1  0
 22 40  1  0
 22 41  1  0
M  CHG  1  20   1
M  END
