
     RDKit          3D

 19 20  0  0  0  0  0  0  0  0999 V2000
   50.8712    2.2148  -10.4644 O   0  0  0  0  0  0  0  0  0  0  0  0
   50.0742    2.2589   -9.5444 C   0  0  0  0  0  0  0  0  0  0  0  0
   49.3663    1.1927   -9.0739 O   0  0  0  0  0  0  0  0  0  0  0  0
   49.7936    3.3722   -8.8053 N   0  0  0  0  0  0  0  0  0  0  0  0
   49.0604    3.0008   -7.6423 C   0  0  0  0  0  0  0  0  0  0  0  0
   48.4626    1.6458   -8.0373 C   0  0  2  0  0  0  0  0  0  0  0  0
   48.5398    0.6359   -6.8895 C   0  0  0  0  0  0  0  0  0  0  0  0
   47.0306    1.7388   -8.5652 C   0  0  0  0  0  0  0  0  0  0  0  0
   46.0128    2.3220   -7.7904 C   0  0  0  0  0  0  0  0  0  0  0  0
   44.6920    2.3970   -8.2562 C   0  0  0  0  0  0  0  0  0  0  0  0
   44.3520    1.8876   -9.5089 C   0  0  0  0  0  0  0  0  0  0  0  0
   43.0948    1.8981  -10.0507 O   0  0  0  0  0  0  0  0  0  0  0  0
   42.0329    1.3997   -9.2510 C   0  0  0  0  0  0  0  0  0  0  0  0
   45.3634    1.3095  -10.2866 C   0  0  0  0  0  0  0  0  0  0  0  0
   46.6769    1.2145   -9.8164 C   0  0  0  0  0  0  0  0  0  0  0  0
   45.0932    0.7454  -11.5086 O   0  0  0  0  0  0  0  0  0  0  0  0
   45.7255    1.4946  -12.5542 C   0  0  0  0  0  0  0  0  0  0  0  0
   45.9968    0.5634  -13.7343 C   0  0  0  0  0  0  0  0  0  0  0  0
   45.5133    1.1477  -15.0548 C   0  0  0  0  0  0  0  0  0  0  0  0
  1  2  2  0
  2  3  1  0
  2  4  1  0
  4  5  1  0
  3  6  1  0
  5  6  1  0
  6  7  1  1
  6  8  1  0
  8  9  4  0
  9 10  4  0
 10 11  4  0
 11 12  1  0
 12 13  1  0
 11 14  4  0
  8 15  4  0
 14 15  4  0
 14 16  1  0
 16 17  1  0
 17 18  1  0
 18 19  1  0
M  END
