7WY1_D0L_B_502
     RDKit          3D

 58 59  0  0  0  0  0  0  0  0999 V2000
    6.2088    1.4823   -3.0779 C   0  0  0  0  0  0  0  0  0  0  0  0
    6.2377    2.0224   -1.7808 C   0  0  0  0  0  0  0  0  0  0  0  0
    6.2467    2.8699   -2.2254 C   0  0  0  0  0  0  0  0  0  0  0  0
    5.8900    0.4751   -2.5672 C   0  0  0  0  0  0  0  0  0  0  0  0
    6.4121    3.5064   -1.5804 C   0  0  0  0  0  0  0  0  0  0  0  0
    6.8101   -0.3903   -0.5102 C   0  0  0  0  0  0  0  0  0  0  0  0
    6.5868    1.7630    0.7549 C   0  0  0  0  0  0  0  0  0  0  0  0
    6.1426    1.1621   -0.6752 C   0  0  0  0  0  0  0  0  0  0  0  0
    6.0719   -0.8050   -1.7720 C   0  0  0  0  0  0  0  0  0  0  0  0
    6.8962    1.1364   -0.5781 C   0  0  2  0  0  0  0  0  0  0  0  0
    6.0664    0.1046   -3.2640 C   0  0  0  0  0  0  0  0  0  0  0  0
    5.8268    3.9769   -0.2330 C   0  0  2  0  0  0  0  0  0  0  0  0
    5.9628   -0.7436   -2.1594 C   0  0  0  0  0  0  0  0  0  0  0  0
    6.1203    5.4345   -0.0010 C   0  0  0  0  0  0  0  0  0  0  0  0
    6.0028   -0.2154   -0.8664 C   0  0  0  0  0  0  0  0  0  0  0  0
    7.2953    5.8677   -0.1275 O   0  0  0  0  0  0  0  0  0  0  0  0
    6.4789    1.0257    1.7703 O   0  0  0  0  0  0  0  0  0  0  0  0
    5.0949    6.3099    0.3390 O   0  0  0  0  0  0  0  0  0  0  0  0
    5.9274    1.5683   -1.5974 N   0  0  0  0  0  0  0  0  0  0  0  0
    7.3551    2.7034   -3.2757 C   0  0  0  0  0  0  0  0  0  0  0  0
    8.3933    1.6298   -2.9022 C   0  0  0  0  0  0  0  0  0  0  0  0
    7.8321    0.1999   -2.9795 C   0  0  0  0  0  0  0  0  0  0  0  0
    6.3441    0.1759   -3.3578 C   0  0  0  0  0  0  0  0  0  0  0  0
    5.4868   -0.5447   -2.3050 C   0  0  0  0  0  0  0  0  0  0  0  0
    6.1761   -0.5494   -0.9433 C   0  0  0  0  0  0  0  0  0  0  0  0
    6.3785    3.1794    0.8650 N   0  0  0  0  0  0  0  0  0  0  0  0
    6.2940    2.1284   -3.9417 H   0  0  0  0  0  0  0  0  0  0  0  0
    5.3572    3.3207   -2.7212 H   0  0  0  0  0  0  0  0  0  0  0  0
    6.5891    3.6159   -1.4757 H   0  0  0  0  0  0  0  0  0  0  0  0
    6.7244    0.5616   -3.3037 H   0  0  0  0  0  0  0  0  0  0  0  0
    4.9166    0.4740   -3.1046 H   0  0  0  0  0  0  0  0  0  0  0  0
    5.9435    4.0659   -2.4177 H   0  0  0  0  0  0  0  0  0  0  0  0
    7.4983    3.7483   -1.6094 H   0  0  0  0  0  0  0  0  0  0  0  0
    6.2483   -0.7438    0.3846 H   0  0  0  0  0  0  0  0  0  0  0  0
    7.8300   -0.8387   -0.4876 H   0  0  0  0  0  0  0  0  0  0  0  0
    6.1774    1.5577    0.3322 H   0  0  0  0  0  0  0  0  0  0  0  0
    6.6490   -1.5603   -2.3505 H   0  0  0  0  0  0  0  0  0  0  0  0
    5.0758   -1.2235   -1.5064 H   0  0  0  0  0  0  0  0  0  0  0  0
    7.9369    1.3971   -0.8858 H   0  0  0  0  0  0  0  0  0  0  0  0
    6.0386   -0.3063   -4.2645 H   0  0  0  0  0  0  0  0  0  0  0  0
    4.7256    3.8180   -0.2589 H   0  0  0  0  0  0  0  0  0  0  0  0
    5.8537   -1.8098   -2.3053 H   0  0  0  0  0  0  0  0  0  0  0  0
    5.9272   -0.8736   -0.0117 H   0  0  0  0  0  0  0  0  0  0  0  0
    5.2796    7.2948    0.4883 H   0  0  0  0  0  0  0  0  0  0  0  0
    7.8863    3.6777   -3.3590 H   0  0  0  0  0  0  0  0  0  0  0  0
    6.9152    2.4969   -4.2726 H   0  0  0  0  0  0  0  0  0  0  0  0
    9.2384    1.7103   -3.6195 H   0  0  0  0  0  0  0  0  0  0  0  0
    8.7993    1.8339   -1.8880 H   0  0  0  0  0  0  0  0  0  0  0  0
    8.4020   -0.4029   -3.7129 H   0  0  0  0  0  0  0  0  0  0  0  0
    7.9439   -0.2823   -1.9883 H   0  0  0  0  0  0  0  0  0  0  0  0
    5.9890    1.2272   -3.4417 H   0  0  0  0  0  0  0  0  0  0  0  0
    6.2124   -0.3055   -4.3518 H   0  0  0  0  0  0  0  0  0  0  0  0
    4.5038   -0.0415   -2.2008 H   0  0  0  0  0  0  0  0  0  0  0  0
    5.3106   -1.5975   -2.6209 H   0  0  0  0  0  0  0  0  0  0  0  0
    6.3065    0.4915   -0.5748 H   0  0  0  0  0  0  0  0  0  0  0  0
    7.1695   -1.0395   -1.0111 H   0  0  0  0  0  0  0  0  0  0  0  0
    5.5522   -1.1122   -0.2150 H   0  0  0  0  0  0  0  0  0  0  0  0
    6.6863    3.6581    1.7421 H   0  0  0  0  0  0  0  0  0  0  0  0
  1  2  4  0
  2  5  1  0
  2  8  4  0
  4  9  1  0
  6  9  1  0
  6 10  1  0
 10  7  1  0
  1 11  4  0
 12  5  1  0
 11 13  4  0
 12 14  1  0
 13 15  4  0
  8 15  4  0
 14 16  2  0
  7 17  2  0
 14 18  1  0
  4 19  1  0
  3 19  1  0
 10 19  1  0
  3 20  1  0
 20 21  1  0
 21 22  1  0
 22 23  1  0
 23 24  1  0
 24 25  1  0
  7 26  1  0
 12 26  1  0
  1 27  1  0
  3 28  1  0
  3 29  1  0
  4 30  1  0
  4 31  1  0
  5 32  1  0
  5 33  1  0
  6 34  1  0
  6 35  1  0
  8 36  1  0
  9 37  1  0
  9 38  1  0
 10 39  1  1
 11 40  1  0
 12 41  1  1
 13 42  1  0
 15 43  1  0
 18 44  1  0
 20 45  1  0
 20 46  1  0
 21 47  1  0
 21 48  1  0
 22 49  1  0
 22 50  1  0
 23 51  1  0
 23 52  1  0
 24 53  1  0
 24 54  1  0
 25 55  1  0
 25 56  1  0
 25 57  1  0
 26 58  1  0
M  END
