7KC5_BJZ_A_402
     RDKit          3D

 56 60  0  0  0  0  0  0  0  0999 V2000
   -7.6739  -19.2358  -10.7542 C   0  0  0  0  0  0  0  0  0  0  0  0
   -6.5249  -18.7702  -10.1049 C   0  0  0  0  0  0  0  0  0  0  0  0
   -5.4150  -18.3389  -10.8488 C   0  0  0  0  0  0  0  0  0  0  0  0
   -5.4691  -18.3838  -12.2522 C   0  0  0  0  0  0  0  0  0  0  0  0
   -6.6155  -18.8560  -12.9009 C   0  0  0  0  0  0  0  0  0  0  0  0
   -7.7177  -19.2805  -12.1518 C   0  0  0  0  0  0  0  0  0  0  0  0
   -6.6698  -18.9188  -14.6535 Cl  0  0  0  0  0  0  0  0  0  0  0  0
   -4.2339  -17.8670  -10.1789 N   0  0  0  0  0  0  0  0  0  0  0  0
   -3.2859  -16.9200  -10.6466 C   0  0  0  0  0  0  0  0  0  0  0  0
   -2.1363  -16.8266   -9.8112 N   0  0  0  0  0  0  0  0  0  0  0  0
   -2.2725  -17.8185   -8.7324 C   0  0  2  0  0  0  0  0  0  0  0  0
   -3.6449  -18.3994   -8.9965 C   0  0  0  0  0  0  0  0  0  0  0  0
   -4.2087  -19.2602   -8.2674 O   0  0  0  0  0  0  0  0  0  0  0  0
   -2.1973  -17.2017   -7.3297 C   0  0  1  0  0  0  0  0  0  0  0  0
   -1.5164  -18.2026   -6.5145 N   0  0  0  0  0  0  0  0  0  0  0  0
   -0.9870  -19.3121   -7.3003 C   0  0  2  0  0  0  0  0  0  0  0  0
   -1.1427  -18.8719   -8.7612 C   0  0  1  0  0  0  0  0  0  0  0  0
   -1.3121  -19.9692   -9.8074 C   0  0  0  0  0  0  0  0  0  0  0  0
   -0.2945  -20.1458  -10.7632 C   0  0  0  0  0  0  0  0  0  0  0  0
   -0.4331  -21.0820  -11.7911 C   0  0  0  0  0  0  0  0  0  0  0  0
   -1.5969  -21.8505  -11.8883 C   0  0  0  0  0  0  0  0  0  0  0  0
   -2.6226  -21.6773  -10.9538 C   0  0  0  0  0  0  0  0  0  0  0  0
   -2.4874  -20.7402   -9.9248 C   0  0  0  0  0  0  0  0  0  0  0  0
   -1.7445  -22.8070  -12.9538 C   0  0  0  0  0  0  0  0  0  0  0  0
   -1.8646  -23.5781  -13.8091 N   0  0  0  0  0  0  0  0  0  0  0  0
   -1.4002  -18.1424   -5.0792 C   0  0  0  0  0  0  0  0  0  0  0  0
   -0.8699  -17.0323   -4.4946 N   0  0  0  0  0  0  0  0  0  0  0  0
   -0.7262  -16.9171   -3.1479 C   0  0  0  0  0  0  0  0  0  0  0  0
   -1.1268  -17.9627   -2.3006 C   0  0  0  0  0  0  0  0  0  0  0  0
   -1.6844  -19.1118   -2.8796 C   0  0  0  0  0  0  0  0  0  0  0  0
   -1.8232  -19.2060   -4.2653 C   0  0  0  0  0  0  0  0  0  0  0  0
   -0.9672  -17.8589   -0.8330 C   0  0  0  0  0  0  0  0  0  0  0  0
    0.1486  -18.0924   -0.2942 O   0  0  0  0  0  0  0  0  0  0  0  0
   -2.0517  -17.5070   -0.0325 O   0  0  0  0  0  0  0  0  0  0  0  0
   -1.0149  -15.9189  -10.0487 C   0  0  1  0  0  0  0  0  0  0  0  0
   -3.4593  -16.2041  -11.6694 O   0  0  0  0  0  0  0  0  0  0  0  0
   -9.0619  -19.7552   -9.8138 Cl  0  0  0  0  0  0  0  0  0  0  0  0
   -6.5075  -18.7247   -9.0237 H   0  0  0  0  0  0  0  0  0  0  0  0
   -4.6144  -18.0758  -12.8410 H   0  0  0  0  0  0  0  0  0  0  0  0
   -8.6070  -19.6413  -12.6534 H   0  0  0  0  0  0  0  0  0  0  0  0
   -1.6022  -16.2643   -7.3254 H   0  0  0  0  0  0  0  0  0  0  0  0
   -3.2093  -16.9867   -6.9204 H   0  0  0  0  0  0  0  0  0  0  0  0
   -1.5576  -20.2274   -7.0512 H   0  0  0  0  0  0  0  0  0  0  0  0
    0.0872  -19.4764   -7.0590 H   0  0  0  0  0  0  0  0  0  0  0  0
   -0.1934  -18.3400   -8.9959 H   0  0  0  0  0  0  0  0  0  0  0  0
    0.6073  -19.5475  -10.7203 H   0  0  0  0  0  0  0  0  0  0  0  0
    0.3647  -21.1993  -12.5148 H   0  0  0  0  0  0  0  0  0  0  0  0
   -3.5343  -22.2587  -11.0270 H   0  0  0  0  0  0  0  0  0  0  0  0
   -3.3170  -20.6134   -9.2465 H   0  0  0  0  0  0  0  0  0  0  0  0
   -0.2952  -16.0103   -2.7433 H   0  0  0  0  0  0  0  0  0  0  0  0
   -2.0074  -19.9420   -2.2628 H   0  0  0  0  0  0  0  0  0  0  0  0
   -2.2606  -20.0998   -4.6887 H   0  0  0  0  0  0  0  0  0  0  0  0
   -1.9343  -17.3424    0.9599 H   0  0  0  0  0  0  0  0  0  0  0  0
   -1.3383  -14.8733   -9.8661 H   0  0  0  0  0  0  0  0  0  0  0  0
   -0.1661  -16.1497   -9.3724 H   0  0  0  0  0  0  0  0  0  0  0  0
   -0.6717  -16.0191  -11.0998 H   0  0  0  0  0  0  0  0  0  0  0  0
  1  2  2  0
  2  3  1  0
  3  4  2  0
  4  5  1  0
  1  6  1  0
  5  6  2  0
  5  7  1  0
  3  8  1  0
  8  9  1  0
  9 10  1  0
 11 10  1  6
  8 12  1  0
 11 12  1  0
 12 13  2  0
 11 14  1  0
 14 15  1  0
 15 16  1  0
 11 17  1  0
 16 17  1  0
 17 18  1  0
 18 19  2  0
 19 20  1  0
 20 21  2  0
 21 22  1  0
 18 23  1  0
 22 23  2  0
 21 24  1  0
 24 25  3  0
 15 26  1  0
 26 27  2  0
 27 28  1  0
 28 29  2  0
 29 30  1  0
 26 31  1  0
 30 31  2  0
 29 32  1  0
 32 33  2  0
 32 34  1  0
 10 35  1  0
  9 36  2  0
  1 37  1  0
  2 38  1  0
  4 39  1  0
  6 40  1  0
 14 41  1  6
 14 42  1  0
 16 43  1  6
 16 44  1  0
 17 45  1  6
 19 46  1  0
 20 47  1  0
 22 48  1  0
 23 49  1  0
 28 50  1  0
 30 51  1  0
 31 52  1  0
 34 53  1  0
 35 54  1  6
 35 55  1  0
 35 56  1  0
M  END
