@<TRIPOS>MOLECULE
1J3J_CP6_A_609
 30 31 0 0 0
SMALL
GASTEIGER

@<TRIPOS>ATOM
      1 N          29.8760    4.1050   56.3530 N.ar    1  UNL1       -0.1995
      2 C          29.3430    5.0480   55.4730 C.ar    1  UNL1        0.2145
      3 C          29.5330    4.1550   57.6870 C.ar    1  UNL1        0.1293
      4 C          28.5300    5.1440   58.1820 C.ar    1  UNL1        0.0430
      5 C          28.0470    6.1130   57.1470 C.ar    1  UNL1        0.0556
      6 N          28.4140    6.0290   55.8370 N.ar    1  UNL1       -0.2190
      7 C          28.1050    5.2380   59.5600 C.ar    1  UNL1       -0.0128
      8 C          28.7100    6.0880   60.5010 C.ar    1  UNL1       -0.0525
      9 C          28.2730    6.1450   61.8450 C.ar    1  UNL1       -0.0428
     10 C          27.1820    5.3060   62.2940 C.ar    1  UNL1        0.0410
     11 C          26.5410    4.4530   61.4010 C.ar    1  UNL1       -0.0428
     12 C          26.9930    4.4190   60.0470 C.ar    1  UNL1       -0.0525
     13 N          30.0320    3.2590   58.5670 N.pl3   1  UNL1       -0.3425
     14 N          29.7100    4.9790   54.1210 N.pl3   1  UNL1       -0.3274
     15 C          27.0510    7.1590   57.5690 C.3     1  UNL1       -0.0124
     16 C          25.6780    7.1840   56.9350 C.3     1  UNL1       -0.0598
     17 CL         26.7810    5.4560   63.9000 Cl      1  UNL1       -0.0835
     18 H          29.4953    6.6876   60.2032 H       1  UNL1        0.0624
     19 H          28.7338    6.7874   62.5083 H       1  UNL1        0.0632
     20 H          25.7564    3.8582   61.7103 H       1  UNL1        0.0632
     21 H          26.5153    3.7900   59.3828 H       1  UNL1        0.0624
     22 H          30.6949    2.5944   58.2703 H       1  UNL1        0.1437
     23 H          29.7326    3.2709   59.5048 H       1  UNL1        0.1437
     24 H          30.3607    4.3037   53.8214 H       1  UNL1        0.1452
     25 H          29.3169    5.6059   53.4716 H       1  UNL1        0.1452
     26 H          27.4997    8.1109   57.3756 H       1  UNL1        0.0326
     27 H          26.8496    6.9140   58.5909 H       1  UNL1        0.0326
     28 H          25.7692    7.4234   55.8961 H       1  UNL1        0.0233
     29 H          25.0747    7.9229   57.4197 H       1  UNL1        0.0233
     30 H          25.2188    6.2233   57.0407 H       1  UNL1        0.0233
@<TRIPOS>BOND
     1     1     2   ar
     2     1     3   ar
     3     3     4   ar
     4     4     5   ar
     5     2     6   ar
     6     5     6   ar
     7     4     7    1
     8     7     8   ar
     9     8     9   ar
    10     9    10   ar
    11    10    11   ar
    12     7    12   ar
    13    11    12   ar
    14     3    13    1
    15     2    14    1
    16     5    15    1
    17    15    16    1
    18    10    17    1
    19     8    18    1
    20     9    19    1
    21    11    20    1
    22    12    21    1
    23    13    22    1
    24    13    23    1
    25    14    24    1
    26    14    25    1
    27    15    26    1
    28    15    27    1
    29    16    28    1
    30    16    29    1
    31    16    30    1
