1SQ5_PAU_A_6001
     RDKit          3D

 32 31  0  0  0  0  0  0  0  0999 V2000
   -1.9022    2.2702    1.0151 O   0  0  0  0  0  0  0  0  0  0  0  0
   -0.4385    0.3585    1.3814 C   0  0  0  0  0  0  0  0  0  0  0  0
   -1.7851    0.8863    0.8169 C   0  0  0  0  0  0  0  0  0  0  0  0
   -0.3345    0.7205    2.8820 C   0  0  0  0  0  0  0  0  0  0  0  0
    0.7357    1.0384    0.6402 C   0  0  0  0  0  0  0  0  0  0  0  0
   -0.3404   -1.1966    1.2334 C   0  0  1  0  0  0  0  0  0  0  0  0
   -1.3567   -1.8176    1.9824 O   0  0  0  0  0  0  0  0  0  0  0  0
   -0.4180   -1.6643   -0.2033 C   0  0  0  0  0  0  0  0  0  0  0  0
   -1.5421   -1.9162   -0.7178 O   0  0  0  0  0  0  0  0  0  0  0  0
    0.7797   -1.8188   -0.9792 N   0  0  0  0  0  0  0  0  0  0  0  0
    0.7688   -2.3227   -2.3524 C   0  0  0  0  0  0  0  0  0  0  0  0
    0.2602   -1.2603   -3.3335 C   0  0  0  0  0  0  0  0  0  0  0  0
    1.1474   -0.0527   -3.3547 C   0  0  0  0  0  0  0  0  0  0  0  0
    2.5040   -0.1896   -3.6331 O   0  0  0  0  0  0  0  0  0  0  0  0
    0.6611    1.0911   -3.1478 O   0  0  0  0  0  0  0  0  0  0  0  0
   -2.7826    2.5304    0.6380 H   0  0  0  0  0  0  0  0  0  0  0  0
   -2.6342    0.3715    1.3204 H   0  0  0  0  0  0  0  0  0  0  0  0
   -1.8512    0.6739   -0.2734 H   0  0  0  0  0  0  0  0  0  0  0  0
   -1.1965    0.3101    3.4505 H   0  0  0  0  0  0  0  0  0  0  0  0
    0.6006    0.3094    3.3203 H   0  0  0  0  0  0  0  0  0  0  0  0
   -0.3233    1.8220    3.0288 H   0  0  0  0  0  0  0  0  0  0  0  0
    0.6579    0.8813   -0.4547 H   0  0  0  0  0  0  0  0  0  0  0  0
    0.7396    2.1345    0.8226 H   0  0  0  0  0  0  0  0  0  0  0  0
    1.7089    0.6288    0.9868 H   0  0  0  0  0  0  0  0  0  0  0  0
    0.6462   -1.5178    1.6445 H   0  0  0  0  0  0  0  0  0  0  0  0
   -1.0895   -2.7667    2.1032 H   0  0  0  0  0  0  0  0  0  0  0  0
    1.7043   -1.6417   -0.5259 H   0  0  0  0  0  0  0  0  0  0  0  0
    1.7975   -2.6306   -2.6412 H   0  0  0  0  0  0  0  0  0  0  0  0
    0.1249   -3.2266   -2.4132 H   0  0  0  0  0  0  0  0  0  0  0  0
   -0.7782   -0.9661   -3.0687 H   0  0  0  0  0  0  0  0  0  0  0  0
    0.2352   -1.6961   -4.3548 H   0  0  0  0  0  0  0  0  0  0  0  0
    3.1133    0.6193   -3.6578 H   0  0  0  0  0  0  0  0  0  0  0  0
  1  3  1  0
  2  3  1  0
  2  4  1  0
  2  5  1  0
  2  6  1  0
  6  7  1  0
  6  8  1  0
  8  9  2  0
  8 10  1  0
 10 11  1  0
 11 12  1  0
 12 13  1  0
 13 14  1  0
 13 15  2  0
  1 16  1  0
  3 17  1  0
  3 18  1  0
  4 19  1  0
  4 20  1  0
  4 21  1  0
  5 22  1  0
  5 23  1  0
  5 24  1  0
  6 25  1  1
  7 26  1  0
 10 27  1  0
 11 28  1  0
 11 29  1  0
 12 30  1  0
 12 31  1  0
 14 32  1  0
M  END
