1L7F_BCZ_A_801
     RDKit          3D

 23 23  0  0  0  0  0  0  0  0999 V2000
   24.6478   16.7228   63.1651 C   0  0  1  0  0  0  0  0  0  0  0  0
   24.2774   16.1212   61.9371 N   0  0  0  0  0  0  0  0  0  0  0  0
   23.8859   14.7196   61.9976 C   0  0  0  0  0  0  0  0  0  0  0  0
   24.0052   14.0562   63.0751 N   0  0  0  0  0  0  0  0  0  0  0  0
   23.3606   14.1000   60.8104 N   0  0  0  0  0  0  0  0  0  0  0  0
   25.8220   17.6740   63.1483 C   0  0  2  0  0  0  0  0  0  0  0  0
   27.0689   17.0444   62.7079 C   0  0  2  0  0  0  0  0  0  0  0  0
   28.2775   17.9791   62.4567 C   0  0  1  0  0  0  0  0  0  0  0  0
   27.8186   19.3804   62.4372 C   0  0  0  0  0  0  0  0  0  0  0  0
   28.1725   20.2795   61.3011 C   0  0  0  0  0  0  0  0  0  0  0  0
   29.4763   17.5337   63.1557 C   0  0  0  0  0  0  0  0  0  0  0  0
   30.7826   17.9968   62.5722 C   0  0  0  0  0  0  0  0  0  0  0  0
   26.8792   16.3810   61.4468 N   0  0  0  0  0  0  0  0  0  0  0  0
   27.1299   14.9619   61.4073 C   0  0  0  0  0  0  0  0  0  0  0  0
   26.9831   14.2053   60.1116 C   0  0  0  0  0  0  0  0  0  0  0  0
   27.4712   14.3077   62.4146 O   0  0  0  0  0  0  0  0  0  0  0  0
   25.7571   18.2070   64.5470 C   0  0  2  0  0  0  0  0  0  0  0  0
   26.0819   17.1952   65.4299 O   0  0  0  0  0  0  0  0  0  0  0  0
   24.2502   18.4303   64.7441 C   0  0  1  0  0  0  0  0  0  0  0  0
   23.9360   19.8790   64.7474 C   0  0  0  0  0  0  0  0  0  0  0  0
   24.7960   20.7799   64.5616 O   0  0  0  0  0  0  0  0  0  0  0  0
   22.6278   20.2746   64.9659 O   0  0  0  0  0  0  0  0  0  0  0  0
   23.5660   17.6811   63.6543 C   0  0  0  0  0  0  0  0  0  0  0  0
  1  2  1  6
  2  3  1  0
  3  4  2  0
  3  5  1  0
  1  6  1  0
  6  7  1  1
  7  8  1  0
  8  9  1  1
  9 10  1  1
  8 11  1  0
 11 12  1  1
  7 13  1  6
 13 14  1  0
 15 14  1  1
 14 16  2  0
  6 17  1  0
 17 18  1  1
 17 19  1  0
 19 20  1  6
 20 21  2  0
 20 22  1  0
 23  1  1  1
 19 23  1  0
M  END
$$$$
