7NSW_HC4_BBB_401
     RDKit          3D

 12 12  0  0  0  0  0  0  0  0999 V2000
   64.2544   33.2666   36.5783 C   0  0  0  0  0  0  0  0  0  0  0  0
   64.4391   32.1137   36.1926 O   0  0  0  0  0  0  0  0  0  0  0  0
   64.8895   34.2410   36.1410 O   0  0  0  0  0  0  0  0  0  0  0  0
   63.2225   33.4918   37.6540 C   0  0  0  0  0  0  0  0  0  0  0  0
   63.4107   34.3152   38.6972 C   0  0  0  0  0  0  0  0  0  0  0  0
   62.6307   34.4316   39.9315 C   0  0  0  0  0  0  0  0  0  0  0  0
   63.2570   34.7236   41.1518 C   0  0  0  0  0  0  0  0  0  0  0  0
   62.5524   34.7601   42.3430 C   0  0  0  0  0  0  0  0  0  0  0  0
   61.1817   34.5250   42.3448 C   0  0  0  0  0  0  0  0  0  0  0  0
   60.5324   34.2600   41.1496 C   0  0  0  0  0  0  0  0  0  0  0  0
   61.2555   34.1740   39.9707 C   0  0  0  0  0  0  0  0  0  0  0  0
   60.4634   34.5767   43.4974 O   0  0  0  0  0  0  0  0  0  0  0  0
  1  2  2  0
  1  3  1  0
  1  4  1  0
  4  5  2  0
  5  6  1  0
  6  7  2  0
  7  8  1  0
  8  9  2  0
  9 10  1  0
  6 11  1  0
 10 11  2  0
  9 12  1  0
M  END
