@<TRIPOS>MOLECULE
1S3V_TQD_A_187
 56 58 0 0 0
SMALL
GASTEIGER

@<TRIPOS>ATOM
      1 C          -0.0220   32.0840    0.4630 C.3     1  UNL1        0.2605
      2 C          -1.0240   32.5690    2.5090 C.2     1  UNL1        0.3120
      3 C          -1.5800   31.2770    2.5290 C.2     1  UNL1        0.0596
      4 C          -2.2630   30.7710    3.8370 C.3     1  UNL1       -0.0143
      5 C          -3.1500   29.5290    3.5680 C.3     1  UNL1       -0.0207
      6 C          -2.3810   28.4980    2.7070 C.3     1  UNL1       -0.0433
      7 C          -1.7830   29.0250    1.3530 C.3     1  UNL1       -0.0139
      8 C          -1.3110   30.4230    1.4480 C.2     1  UNL1        0.0191
      9 C          -3.6230   28.9830    4.9610 C.3     1  UNL1        0.0150
     10 C          -4.2430   26.5590    4.7800 C.ar    1  UNL1        0.0367
     11 C          -5.1380   25.6470    4.2580 C.ar    1  UNL1        0.0050
     12 C          -4.8550   24.2840    4.1780 C.ar    1  UNL1        0.1669
     13 C          -7.0110   23.8840    3.0290 C.3     1  UNL1        0.0790
     14 C          -3.6600   23.8460    4.6560 C.ar    1  UNL1        0.2036
     15 C          -2.5570   22.0920    3.4830 C.3     1  UNL1        0.0791
     16 C          -2.7120   24.7340    5.1800 C.ar    1  UNL1        0.1669
     17 C          -0.4570   25.1330    6.0060 C.3     1  UNL1        0.0790
     18 C          -3.0110   26.0890    5.2580 C.ar    1  UNL1        0.0050
     19 N          -0.4660   30.8230    0.4170 N.pl3   1  UNL1       -0.2935
     20 N           0.8430   32.3740   -0.5420 N.3     1  UNL1       -0.2732
     21 N          -0.2370   32.9710    1.4960 N.2     1  UNL1       -0.0434
     22 N          -1.2830   33.4620    3.4970 N.pl3   1  UNL1       -0.2466
     23 N          -4.6260   27.9200    4.8320 N.pl3   1  UNL1       -0.3325
     24 O          -5.8220   23.4160    3.6560 O.3     1  UNL1       -0.4913
     25 O          -3.1430   22.5770    4.6930 O.3     1  UNL1       -0.4885
     26 O          -1.5180   24.2160    5.6340 O.3     1  UNL1       -0.4913
     27 C          -6.0510   28.2900    4.7350 C.3     1  UNL1        0.0007
     28 H          -0.9406   32.6100    0.6193 H       1  UNL1        0.1234
     29 H          -2.8727   31.5542    4.2367 H       1  UNL1        0.0319
     30 H          -1.4973   30.4939    4.5311 H       1  UNL1        0.0319
     31 H          -4.0209   29.7702    2.9951 H       1  UNL1        0.0319
     32 H          -3.0549   27.6996    2.4762 H       1  UNL1        0.0272
     33 H          -1.5364   28.2090    3.2970 H       1  UNL1        0.0272
     34 H          -2.5399   28.9690    0.5988 H       1  UNL1        0.0326
     35 H          -0.9395   28.4131    1.1103 H       1  UNL1        0.0326
     36 H          -4.0474   29.7902    5.5207 H       1  UNL1        0.0466
     37 H          -2.7699   28.5691    5.4568 H       1  UNL1        0.0466
     38 H          -6.0500   25.9863    3.9143 H       1  UNL1        0.0674
     39 H          -7.5981   23.0486    2.7091 H       1  UNL1        0.0660
     40 H          -6.7546   24.4851    2.1817 H       1  UNL1        0.0660
     41 H          -7.5742   24.4702    3.7248 H       1  UNL1        0.0660
     42 H          -2.1917   21.0981    3.6370 H       1  UNL1        0.0660
     43 H          -1.7463   22.7299    3.1986 H       1  UNL1        0.0660
     44 H          -3.2942   22.0849    2.7075 H       1  UNL1        0.0660
     45 H           0.3961   24.5770    6.3346 H       1  UNL1        0.0660
     46 H          -0.7956   25.7678    6.7980 H       1  UNL1        0.0660
     47 H          -0.1890   25.7305    5.1598 H       1  UNL1        0.0660
     48 H          -2.3289   26.7471    5.6662 H       1  UNL1        0.0674
     49 H          -0.2084   30.2096   -0.3087 H       1  UNL1        0.1511
     50 H           1.6446   31.7451   -0.4928 H       1  UNL1        0.1238
     51 H           1.1614   33.3385   -0.4488 H       1  UNL1        0.1238
     52 H          -1.8552   33.2045    4.2557 H       1  UNL1        0.2884
     53 H          -0.8988   34.3675    3.4553 H       1  UNL1        0.2884
     54 H          -6.1479   29.3540    4.7927 H       1  UNL1        0.0428
     55 H          -6.5923   27.8384    5.5399 H       1  UNL1        0.0428
     56 H          -6.4461   27.9459    3.8021 H       1  UNL1        0.0428
@<TRIPOS>BOND
     1     2     3    1
     2     3     4    1
     3     4     5    1
     4     5     6    1
     5     6     7    1
     6     3     8    2
     7     7     8    1
     8     5     9    1
     9    10    11   ar
    10    11    12   ar
    11    12    14   ar
    12    14    16   ar
    13    10    18   ar
    14    16    18   ar
    15     1    19    1
    16     8    19    1
    17     1    20    1
    18     1    21    1
    19     2    21    2
    20     2    22    1
    21     9    23    1
    22    10    23    1
    23    12    24    1
    24    13    24    1
    25    14    25    1
    26    15    25    1
    27    16    26    1
    28    17    26    1
    29    23    27    1
    30     1    28    1
    31     4    29    1
    32     4    30    1
    33     5    31    1
    34     6    32    1
    35     6    33    1
    36     7    34    1
    37     7    35    1
    38     9    36    1
    39     9    37    1
    40    11    38    1
    41    13    39    1
    42    13    40    1
    43    13    41    1
    44    15    42    1
    45    15    43    1
    46    15    44    1
    47    17    45    1
    48    17    46    1
    49    17    47    1
    50    18    48    1
    51    19    49    1
    52    20    50    1
    53    20    51    1
    54    22    52    1
    55    22    53    1
    56    27    54    1
    57    27    55    1
    58    27    56    1
