@<TRIPOS>MOLECULE
1S3V_TQD_A_187
 56 58 0 0 0
SMALL
GASTEIGER

@<TRIPOS>ATOM
      1 C          -2.4626    2.9965    4.1060 C.3     1  UNL1        0.2605
      2 C          -0.4702    1.7092    4.6689 C.2     1  UNL1        0.3120
      3 C          -0.4508    1.1209    3.2997 C.2     1  UNL1        0.0596
      4 C           0.5192    0.0009    2.9766 C.3     1  UNL1       -0.0143
      5 C           0.2080   -0.7224    1.6528 C.3     1  UNL1       -0.0207
      6 C          -0.0405    0.3289    0.5609 C.3     1  UNL1       -0.0433
      7 C          -1.2557    1.1822    0.9251 C.3     1  UNL1       -0.0139
      8 C          -1.2193    1.6911    2.3462 C.2     1  UNL1        0.0191
      9 C           1.3640   -1.6805    1.2835 C.3     1  UNL1        0.0150
     10 C           0.8480   -2.4483   -1.0767 C.ar    1  UNL1        0.0367
     11 C          -0.3487   -2.6652   -1.7686 C.ar    1  UNL1        0.0050
     12 C          -0.4543   -2.3768   -3.1426 C.ar    1  UNL1        0.1669
     13 C          -2.8639   -3.0686   -3.2412 C.3     1  UNL1        0.0790
     14 C           0.6763   -1.8629   -3.8307 C.ar    1  UNL1        0.2036
     15 C          -0.4359   -1.6013   -6.0881 C.3     1  UNL1        0.0791
     16 C           1.8794   -1.6551   -3.1353 C.ar    1  UNL1        0.1669
     17 C           4.2542   -0.8706   -3.2799 C.3     1  UNL1        0.0790
     18 C           1.9593   -1.9499   -1.7636 C.ar    1  UNL1        0.0050
     19 N          -2.1067    2.7593    2.7050 N.pl3   1  UNL1       -0.2935
     20 N          -2.7607    4.4090    4.3249 N.3     1  UNL1       -0.2732
     21 N          -1.3724    2.5889    4.9919 N.2     1  UNL1       -0.0434
     22 N           0.5309    1.3701    5.6338 N.pl3   1  UNL1       -0.2466
     23 N           0.9209   -2.7151    0.3359 N.pl3   1  UNL1       -0.3325
     24 O          -1.6595   -2.5883   -3.8306 O.3     1  UNL1       -0.4913
     25 O           0.6752   -1.5364   -5.2009 O.3     1  UNL1       -0.4885
     26 O           2.9778   -1.1460   -3.8480 O.3     1  UNL1       -0.4913
     27 C           0.5665   -4.0410    0.8485 C.3     1  UNL1        0.0007
     28 H          -3.3620    2.3917    4.3519 H       1  UNL1        0.1234
     29 H           1.5425    0.4342    2.9311 H       1  UNL1        0.0319
     30 H           0.4935   -0.7487    3.7968 H       1  UNL1        0.0319
     31 H          -0.7177   -1.3246    1.7960 H       1  UNL1        0.0319
     32 H          -0.2409   -0.1504   -0.4170 H       1  UNL1        0.0272
     33 H           0.8534    0.9820    0.4472 H       1  UNL1        0.0272
     34 H          -1.3108    2.0430    0.2246 H       1  UNL1        0.0326
     35 H          -2.1791    0.5779    0.7944 H       1  UNL1        0.0326
     36 H           1.7353   -2.1758    2.2084 H       1  UNL1        0.0466
     37 H           2.2264   -1.1113    0.8758 H       1  UNL1        0.0466
     38 H          -1.1988   -3.0446   -1.2195 H       1  UNL1        0.0674
     39 H          -2.7077   -4.0884   -2.8315 H       1  UNL1        0.0660
     40 H          -3.6534   -3.1160   -4.0192 H       1  UNL1        0.0660
     41 H          -3.1991   -2.3768   -2.4390 H       1  UNL1        0.0660
     42 H          -1.2550   -0.9432   -5.7284 H       1  UNL1        0.0660
     43 H          -0.1168   -1.2426   -7.0886 H       1  UNL1        0.0660
     44 H          -0.7832   -2.6503   -6.1920 H       1  UNL1        0.0660
     45 H           4.1571   -0.1159   -2.4716 H       1  UNL1        0.0660
     46 H           4.9206   -0.4629   -4.0672 H       1  UNL1        0.0660
     47 H           4.7044   -1.8038   -2.8810 H       1  UNL1        0.0660
     48 H           2.8867   -1.8086   -1.2283 H       1  UNL1        0.0674
     49 H          -2.6890    3.2034    1.9589 H       1  UNL1        0.1511
     50 H          -1.9413    4.9758    4.0034 H       1  UNL1        0.1238
     51 H          -3.5752    4.6733    3.7239 H       1  UNL1        0.1238
     52 H           1.3305    0.7415    5.4066 H       1  UNL1        0.2884
     53 H           0.4894    1.7786    6.5942 H       1  UNL1        0.2884
     54 H          -0.2477   -3.9502    1.5977 H       1  UNL1        0.0428
     55 H           0.2276   -4.7135    0.0319 H       1  UNL1        0.0428
     56 H           1.4557   -4.5015    1.3287 H       1  UNL1        0.0428
@<TRIPOS>BOND
     1     2     3    1
     2     3     4    1
     3     4     5    1
     4     5     6    1
     5     6     7    1
     6     3     8    2
     7     7     8    1
     8     5     9    1
     9    10    11   ar
    10    11    12   ar
    11    12    14   ar
    12    14    16   ar
    13    10    18   ar
    14    16    18   ar
    15     1    19    1
    16     8    19    1
    17     1    20    1
    18     1    21    1
    19     2    21    2
    20     2    22    1
    21     9    23    1
    22    10    23    1
    23    12    24    1
    24    13    24    1
    25    14    25    1
    26    15    25    1
    27    16    26    1
    28    17    26    1
    29    23    27    1
    30     1    28    1
    31     4    29    1
    32     4    30    1
    33     5    31    1
    34     6    32    1
    35     6    33    1
    36     7    34    1
    37     7    35    1
    38     9    36    1
    39     9    37    1
    40    11    38    1
    41    13    39    1
    42    13    40    1
    43    13    41    1
    44    15    42    1
    45    15    43    1
    46    15    44    1
    47    17    45    1
    48    17    46    1
    49    17    47    1
    50    18    48    1
    51    19    49    1
    52    20    50    1
    53    20    51    1
    54    22    52    1
    55    22    53    1
    56    27    54    1
    57    27    55    1
    58    27    56    1
