8D5D_5DK_B_505
     RDKit          3D

 49 49  0  0  0  0  0  0  0  0999 V2000
    5.7580   -7.7452   42.1592 C   0  0  0  0  0  0  0  0  0  0  0  0
    4.9679   -7.6916   41.0208 C   0  0  0  0  0  0  0  0  0  0  0  0
    4.9318   -8.8179   40.1687 C   0  0  0  0  0  0  0  0  0  0  0  0
    5.7793   -9.9292   40.4180 C   0  0  0  0  0  0  0  0  0  0  0  0
    6.6184   -9.8989   41.5368 C   0  0  0  0  0  0  0  0  0  0  0  0
    2.3619   -8.9308   36.6099 C   0  0  0  0  0  0  0  0  0  0  0  0
    4.3128   -6.6283   40.7803 O   0  0  0  0  0  0  0  0  0  0  0  0
    3.9300   -9.7491   37.4900 O   0  0  0  0  0  0  0  0  0  0  0  0
    6.0216   -9.2769   36.1442 O   0  0  0  0  0  0  0  0  0  0  0  0
    5.7363   -8.3315   38.4846 O   0  0  0  0  0  0  0  0  0  0  0  0
    6.2233  -10.7110   38.1668 O   0  0  0  0  0  0  0  0  0  0  0  0
    3.4295   -9.9276   38.6168 N   0  0  0  0  0  0  0  0  0  0  0  0
    5.4186   -9.4662   37.5195 P   0  0  1  0  0  5  0  0  0  0  0  0
    5.7353   -6.6369   43.1728 C   0  0  0  0  0  0  0  0  0  0  0  0
    4.0110   -8.8515   38.9965 C   0  0  0  0  0  0  0  0  0  0  0  0
    5.8436  -11.1082   39.4888 C   0  0  0  0  0  0  0  0  0  0  0  0
    6.5806   -8.8419   42.3481 N   0  0  0  0  0  0  0  0  0  0  0  0
    2.8495  -10.2080   37.3048 C   0  0  2  0  0  0  0  0  0  0  0  0
    3.7933  -11.0474   36.4040 C   0  0  0  0  0  0  0  0  0  0  0  0
    4.5497  -10.4503   35.5947 O   0  0  0  0  0  0  0  0  0  0  0  0
    3.5206   -8.3473   35.8246 C   0  0  0  0  0  0  0  0  0  0  0  0
    3.5015   -8.7541   34.3784 C   0  0  0  0  0  0  0  0  0  0  0  0
    2.1244   -8.8373   33.9431 N   0  0  0  0  0  0  0  0  0  0  0  0
    1.7557   -9.4140   32.8054 C   0  0  0  0  0  0  0  0  0  0  0  0
    2.4341  -10.4380   32.3415 N   0  0  0  0  0  0  0  0  0  0  0  0
    0.7463   -8.9237   32.1143 N   0  0  0  0  0  0  0  0  0  0  0  0
    3.7273  -12.3059   36.5316 O   0  0  0  0  0  0  0  0  0  0  0  0
    7.2584  -10.6847   41.7316 H   0  0  0  0  0  0  0  0  0  0  0  0
    1.5557   -9.1646   35.9463 H   0  0  0  0  0  0  0  0  0  0  0  0
    2.0140   -8.2251   37.3351 H   0  0  0  0  0  0  0  0  0  0  0  0
    4.3637   -5.9030   41.3713 H   0  0  0  0  0  0  0  0  0  0  0  0
    3.6040   -9.8603   38.3968 H   0  0  0  0  0  0  0  0  0  0  0  0
    5.5802   -8.5382   35.6965 H   0  0  0  0  0  0  0  0  0  0  0  0
    5.0456   -5.8812   42.8597 H   0  0  0  0  0  0  0  0  0  0  0  0
    5.4304   -7.0272   44.1212 H   0  0  0  0  0  0  0  0  0  0  0  0
    6.7139   -6.2128   43.2596 H   0  0  0  0  0  0  0  0  0  0  0  0
    3.8365   -7.9789   38.4739 H   0  0  0  0  0  0  0  0  0  0  0  0
    4.8809  -11.5736   39.4495 H   0  0  0  0  0  0  0  0  0  0  0  0
    6.5799  -11.7900   39.8602 H   0  0  0  0  0  0  0  0  0  0  0  0
    1.9857  -10.8159   37.4759 H   0  0  0  0  0  0  0  0  0  0  0  0
    4.5465   -9.5142   35.5538 H   0  0  0  0  0  0  0  0  0  0  0  0
    3.4699   -7.2799   35.8810 H   0  0  0  0  0  0  0  0  0  0  0  0
    4.4255   -8.7227   36.2549 H   0  0  0  0  0  0  0  0  0  0  0  0
    4.0221   -8.0262   33.7918 H   0  0  0  0  0  0  0  0  0  0  0  0
    3.9821   -9.7025   34.2579 H   0  0  0  0  0  0  0  0  0  0  0  0
    1.4269   -8.4476   34.5183 H   0  0  0  0  0  0  0  0  0  0  0  0
    3.1880  -10.8038   32.8582 H   0  0  0  0  0  0  0  0  0  0  0  0
    2.1888  -10.8401   31.4770 H   0  0  0  0  0  0  0  0  0  0  0  0
    0.2381   -8.1558   32.4627 H   0  0  0  0  0  0  0  0  0  0  0  0
  1  2  4  0
  2  3  4  0
  3  4  4  0
  4  5  4  0
  2  7  1  0
 10 13  2  0
 13  8  1  1
 11 13  1  0
  9 13  1  0
  1 14  1  0
 12 15  2  3
  3 15  1  0
 11 16  1  0
  4 16  1  0
  1 17  4  0
  5 17  4  0
 18  6  1  0
 12 18  1  0
 18 19  1  0
 19 20  1  0
  6 21  1  0
 21 22  1  0
 22 23  1  0
 23 24  1  0
 24 25  1  0
 24 26  2  3
 19 27  2  0
  5 28  1  0
  6 29  1  0
  6 30  1  0
  7 31  1  0
  8 32  1  0
  9 33  1  0
 14 34  1  0
 14 35  1  0
 14 36  1  0
 15 37  1  0
 16 38  1  0
 16 39  1  0
 18 40  1  6
 20 41  1  0
 21 42  1  0
 21 43  1  0
 22 44  1  0
 22 45  1  0
 23 46  1  0
 25 47  1  0
 25 48  1  0
 26 49  1  0
M  END
