7JXX_VP7_A_401
     RDKit          3D

 25 28  0  0  0  0  0  0  0  0999 V2000
  179.6140   23.3648   48.6744 N   0  0  0  0  0  0  0  0  0  0  0  0
  178.8675   21.2578   47.8902 N   0  0  0  0  0  0  0  0  0  0  0  0
  179.8316   22.1358   48.1710 C   0  0  0  0  0  0  0  0  0  0  0  0
  177.6090   21.6209   48.1229 C   0  0  0  0  0  0  0  0  0  0  0  0
  176.6275   20.5979   47.7879 C   0  0  0  0  0  0  0  0  0  0  0  0
  176.8811   19.5517   46.9386 C   0  0  0  0  0  0  0  0  0  0  0  0
  177.9861   19.1868   46.2276 C   0  0  0  0  0  0  0  0  0  0  0  0
  179.0430   17.6117   44.6726 C   0  0  0  0  0  0  0  0  0  0  0  0
  180.8784   16.9649   41.7243 C   0  0  0  0  0  0  0  0  0  0  0  0
  176.7385   17.3002   45.3898 C   0  0  0  0  0  0  0  0  0  0  0  0
  175.7024   18.8029   46.8846 C   0  0  0  0  0  0  0  0  0  0  0  0
  174.7840   22.7931   48.5533 C   0  0  0  0  0  0  0  0  0  0  0  0
  176.0213   23.5199   48.9913 C   0  0  0  0  0  0  0  0  0  0  0  0
  179.9908   17.2542   44.0056 C   0  0  0  0  0  0  0  0  0  0  0  0
  181.1258   16.8018   43.1999 C   0  0  1  0  0  0  0  0  0  0  0  0
  181.4119   15.3266   43.4272 C   0  0  0  0  0  0  0  0  0  0  0  0
  175.6063   17.6639   46.1109 C   0  0  0  0  0  0  0  0  0  0  0  0
  175.3174   20.4781   48.2351 C   0  0  0  0  0  0  0  0  0  0  0  0
  174.6395   21.4213   49.1785 C   0  0  0  0  0  0  0  0  0  0  0  0
  177.2843   22.8709   48.6422 C   0  0  0  0  0  0  0  0  0  0  0  0
  178.3389   23.7202   48.9053 C   0  0  0  0  0  0  0  0  0  0  0  0
  177.8967   18.0460   45.4499 C   0  0  0  0  0  0  0  0  0  0  0  0
  181.1809   21.7094   47.9068 N   0  0  0  0  0  0  0  0  0  0  0  0
  174.7700   19.3834   47.6776 N   0  0  0  0  0  0  0  0  0  0  0  0
  182.2310   17.5504   43.5969 O   0  0  0  0  0  0  0  0  0  0  0  0
  2  3  1  0
  1  3  2  0
  2  4  2  0
  4  5  1  0
  5  6  1  0
  6  7  2  0
  6 11  1  0
 12 13  1  6
  8 14  3  0
  9 15  1  1
 14 15  1  0
 16 15  1  1
 10 17  1  0
 11 17  2  0
  5 18  2  0
 19 18  1  1
 12 19  1  0
  4 20  1  0
 13 20  1  6
  1 21  1  0
 20 21  2  0
  8 22  1  0
 10 22  2  0
  7 22  1  0
  3 23  1  0
 11 24  1  0
 18 24  1  0
 15 25  1  1
M  END
$$$$
