
     RDKit          3D

 15 16  0  0  0  0  0  0  0  0999 V2000
   17.3996   17.4095   20.4878 N   0  0  0  0  0  0  0  0  0  0  0  0
   16.4678   17.0829   19.6111 C   0  0  0  0  0  0  0  0  0  0  0  0
   16.6249   17.0224   18.1292 C   0  0  0  0  0  0  0  0  0  0  0  0
   15.6283   17.9195   17.3916 C   0  0  0  0  0  0  0  0  0  0  0  0
   16.1190   18.3459   16.0052 C   0  0  0  0  0  0  0  0  0  0  0  0
   15.7336   17.3274   14.9434 C   0  0  0  0  0  0  0  0  0  0  0  0
   15.2783   16.7937   20.2402 N   0  0  0  0  0  0  0  0  0  0  0  0
   15.4811   16.9401   21.5814 C   0  0  0  0  0  0  0  0  0  0  0  0
   14.5668   16.7531   22.6595 C   0  0  0  0  0  0  0  0  0  0  0  0
   15.1263   16.9943   23.9052 N   0  0  0  0  0  0  0  0  0  0  0  0
   16.4787   17.3896   24.0847 N   0  0  0  0  0  0  0  0  0  0  0  0
   17.3749   17.5728   23.0329 C   0  0  0  0  0  0  0  0  0  0  0  0
   18.5350   17.9146   23.2399 O   0  0  0  0  0  0  0  0  0  0  0  0
   16.7950   17.3211   21.7211 C   0  0  0  0  0  0  0  0  0  0  0  0
   13.3979   16.4130   22.5217 O   0  0  0  0  0  0  0  0  0  0  0  0
  1  2  4  0
  2  3  1  0
  3  4  1  0
  4  5  1  0
  5  6  1  0
  2  7  4  0
  7  8  4  0
  8  9  4  0
  9 10  4  0
 10 11  4  0
 11 12  4  0
 12 13  2  0
  1 14  4  0
  8 14  4  0
 12 14  4  0
  9 15  2  0
M  END
