5SD5_HWI_A_202
     RDKit          3D

 29 31  0  0  0  0  0  0  0  0999 V2000
    8.7275    3.9150   15.0107 C   0  0  0  0  0  0  0  0  0  0  0  0
    8.6650    0.2925   13.9270 C   0  0  0  0  0  0  0  0  0  0  0  0
    6.2147   -3.1096   14.4945 C   0  0  0  0  0  0  0  0  0  0  0  0
    4.0967   -4.1631   14.1043 C   0  0  0  0  0  0  0  0  0  0  0  0
    3.5897   -2.9243   13.7752 C   0  0  0  0  0  0  0  0  0  0  0  0
    4.3853   -1.7733   13.8024 C   0  0  0  0  0  0  0  0  0  0  0  0
    4.1171    0.8478   13.2584 C   0  0  0  0  0  0  0  0  0  0  0  0
    8.1065    1.6421   14.1759 C   0  0  0  0  0  0  0  0  0  0  0  0
    7.6398   -0.6916   13.3411 C   0  0  0  0  0  0  0  0  0  0  0  0
    5.7124   -1.8530   14.1640 C   0  0  0  0  0  0  0  0  0  0  0  0
    5.4328   -4.2472   14.4687 C   0  0  0  0  0  0  0  0  0  0  0  0
    6.0263   -5.5681   14.8336 C   0  0  0  0  0  0  0  0  0  0  0  0
    5.2265    4.6680   16.0326 C   0  0  0  0  0  0  0  0  0  0  0  0
    6.4716    3.8007   16.0478 C   0  0  0  0  0  0  0  0  0  0  0  0
    7.6578    4.5424   15.5968 C   0  0  0  0  0  0  0  0  0  0  0  0
    8.6529    6.6351   15.3572 C   0  0  0  0  0  0  0  0  0  0  0  0
    9.7734    4.7610   14.6033 C   0  0  0  0  0  0  0  0  0  0  0  0
    3.0903    0.8330   12.1162 C   0  0  1  0  0  0  0  0  0  0  0  0
    2.3898   -0.1556   13.0597 C   0  0  0  0  0  0  0  0  0  0  0  0
    2.3448    2.0766   11.9202 C   0  0  0  0  0  0  0  0  0  0  0  0
    7.6305    5.8961   15.7650 N   0  0  0  0  0  0  0  0  0  0  0  0
    8.5759    8.0520   15.5582 N   0  0  0  0  0  0  0  0  0  0  0  0
    9.7260    6.0887   14.7777 N   0  0  0  0  0  0  0  0  0  0  0  0
   10.9409    4.2288   13.9799 N   0  0  0  0  0  0  0  0  0  0  0  0
    3.7523   -0.5679   13.4399 N   0  0  0  0  0  0  0  0  0  0  0  0
    8.8914    2.5943   14.7853 O   0  0  0  0  0  0  0  0  0  0  0  0
    6.5074   -0.7087   14.1930 O   0  0  0  0  0  0  0  0  0  0  0  0
    1.1233    2.0596   11.5424 O   0  0  0  0  0  0  0  0  0  0  0  0
    2.8742    3.3529   12.1189 O   0  0  0  0  0  0  0  0  0  0  0  0
  4  5  1  0
  5  6  2  0
  2  8  1  1
  2  9  1  0
  3 10  2  0
  6 10  1  0
  3 11  1  0
  4 11  2  0
 12 11  1  1
 13 14  1  1
 14 15  1  1
  1 15  2  0
  1 17  1  0
  7 18  1  0
 18 19  1  0
 18 20  1  1
 15 21  1  0
 16 21  2  0
 16 22  1  0
 16 23  1  0
 17 23  2  0
 17 24  1  0
  6 25  1  0
  7 25  1  6
 19 25  1  1
  1 26  1  0
  8 26  1  6
  9 27  1  6
 10 27  1  0
 20 28  2  0
 20 29  1  0
M  END
$$$$
