8A2D_KXY_A_1103
     RDKit          3D

 49 56  0  0  0  0  0  0  0  0999 V2000
   -8.5281  -12.0076   18.9977 C   0  0  1  0  0  0  0  0  0  0  0  0
   -7.6701  -13.0200   18.3292 C   0  0  0  0  0  0  0  0  0  0  0  0
   -6.2724   -9.4760   15.5378 C   0  0  0  0  0  0  0  0  0  0  0  0
   -8.3471  -10.6398   18.4343 C   0  0  0  0  0  0  0  0  0  0  0  0
   -7.5606  -10.2560   17.4368 C   0  0  0  0  0  0  0  0  0  0  0  0
   -6.5213  -10.7133   16.3961 C   0  0  0  0  0  0  0  0  0  0  0  0
   -6.0736   -7.0657   16.6458 C   0  0  0  0  0  0  0  0  0  0  0  0
  -12.5462  -14.5976   19.6894 C   0  0  0  0  0  0  0  0  0  0  0  0
   -7.7501  -13.2739   17.1226 O   0  0  0  0  0  0  0  0  0  0  0  0
  -12.0960  -15.5438   20.8110 C   0  0  0  0  0  0  0  0  0  0  0  0
   -6.0807  -14.7662   18.7113 C   0  0  0  0  0  0  0  0  0  0  0  0
  -19.9849  -20.6797   25.6893 C   0  0  1  0  0  0  0  0  0  0  0  0
   -4.3159  -16.1278   18.5576 C   0  0  0  0  0  0  0  0  0  0  0  0
  -11.6334  -13.6994   19.1965 C   0  0  0  0  0  0  0  0  0  0  0  0
  -11.9665  -12.7875   18.1511 C   0  0  0  0  0  0  0  0  0  0  0  0
  -10.8429  -11.9926   17.9549 C   0  0  0  0  0  0  0  0  0  0  0  0
  -13.2829  -12.8209   17.5592 C   0  0  0  0  0  0  0  0  0  0  0  0
  -16.5446  -17.4225   20.3168 C   0  0  0  0  0  0  0  0  0  0  0  0
  -17.8625  -17.2089   19.9990 C   0  0  0  0  0  0  0  0  0  0  0  0
  -18.8216  -18.1925   20.4051 C   0  0  0  0  0  0  0  0  0  0  0  0
   -6.8863   -8.3151   16.3028 C   0  0  2  0  0  0  0  0  0  0  0  0
   -7.7093   -8.8927   17.2887 N   0  0  0  0  0  0  0  0  0  0  0  0
   -8.5870   -8.5153   18.2224 C   0  0  0  0  0  0  0  0  0  0  0  0
   -9.0130   -9.5485   18.9365 N   0  0  0  0  0  0  0  0  0  0  0  0
   -7.2484   -6.9866   15.6331 C   0  0  0  0  0  0  0  0  0  0  0  0
   -9.9424  -12.4306   18.8645 N   0  0  0  0  0  0  0  0  0  0  0  0
  -13.7818  -14.6434   19.0812 C   0  0  0  0  0  0  0  0  0  0  0  0
  -14.1362  -13.7813   18.0613 C   0  0  0  0  0  0  0  0  0  0  0  0
  -13.6662  -11.9946   16.4120 C   0  0  1  0  0  0  0  0  0  0  0  0
  -13.9866  -12.8066   15.3275 F   0  0  0  0  0  0  0  0  0  0  0  0
  -14.8436  -11.3476   16.6379 F   0  0  0  0  0  0  0  0  0  0  0  0
  -14.7899  -15.6227   19.5093 C   0  0  0  0  0  0  0  0  0  0  0  0
  -15.5831  -16.4249   19.8468 C   0  0  0  0  0  0  0  0  0  0  0  0
  -18.3585  -19.3167   21.0113 C   0  0  0  0  0  0  0  0  0  0  0  0
  -17.0143  -19.5586   21.2935 C   0  0  0  0  0  0  0  0  0  0  0  0
  -16.0785  -18.5819   20.9070 C   0  0  0  0  0  0  0  0  0  0  0  0
  -19.4146  -20.3436   21.4667 C   0  0  0  0  0  0  0  0  0  0  0  0
  -10.3692  -13.4738   19.6170 N   0  0  0  0  0  0  0  0  0  0  0  0
   -6.7530  -13.6511   19.1075 N   0  0  0  0  0  0  0  0  0  0  0  0
   -6.7481  -16.0904   17.8544 S   0  0  0  0  0  0  0  0  0  0  0  0
   -5.2049  -16.9054   17.9063 C   0  0  0  0  0  0  0  0  0  0  0  0
   -4.8269  -14.9275   19.0164 N   0  0  0  0  0  0  0  0  0  0  0  0
  -19.3042  -21.7507   23.5003 C   0  0  0  0  0  0  0  0  0  0  0  0
  -19.0026  -21.6437   25.0045 C   0  0  0  0  0  0  0  0  0  0  0  0
  -19.9645  -19.2862   25.0325 C   0  0  0  0  0  0  0  0  0  0  0  0
  -20.3328  -19.4667   23.5547 C   0  0  0  0  0  0  0  0  0  0  0  0
  -19.3541  -20.3850   22.9403 N   0  0  0  0  0  0  0  0  0  0  0  0
  -21.3929  -21.2705   25.5933 C   0  0  0  0  0  0  0  0  0  0  0  0
  -22.2469  -20.5143   26.4431 O   0  0  0  0  0  0  0  0  0  0  0  0
  1  2  1  0
  1  4  1  0
  4  5  2  0
  5  6  1  0
  3  6  1  0
  2  9  2  0
  8 10  1  0
  8 14  1  0
 14 15  1  0
 15 16  2  0
 15 17  1  0
 18 19  2  0
 19 20  1  0
 21  7  1  1
  3 21  1  0
  5 22  1  0
 21 22  1  0
 22 23  1  0
 23 24  2  0
  4 24  1  0
  7 25  1  0
 21 25  1  0
  1 26  1  6
 16 26  1  0
  8 27  2  0
 27 28  1  0
 17 28  2  0
 17 29  1  0
 29 30  1  6
 29 31  1  0
 27 32  1  0
 18 33  1  0
 32 33  3  0
 20 34  2  0
 34 35  1  0
 35 36  2  0
 18 36  1  0
 34 37  1  0
 14 38  2  0
 26 38  1  0
  2 39  1  0
 11 39  1  0
 11 40  1  0
 13 41  2  0
 40 41  1  0
 11 42  2  0
 13 42  1  0
 12 44  1  0
 43 44  1  0
 12 45  1  0
 45 46  1  0
 43 47  1  0
 46 47  1  0
 37 47  1  0
 12 48  1  6
 48 49  1  0
M  END
