6ZXQ_IMO_A_503
     RDKit          3D

 27 29  0  0  0  0  0  0  0  0999 V2000
  -15.7221    0.3237    9.4841 P   0  0  2  0  0  5  0  0  0  0  0  0
  -14.0638    0.1726    9.7121 O   0  0  0  0  0  0  0  0  0  0  0  0
  -15.4981   -3.4709    7.5844 C   0  0  0  0  0  0  0  0  0  0  0  0
  -17.7734   -6.8765    9.2651 C   0  0  1  0  0  0  0  0  0  0  0  0
  -16.5104   -7.6658    9.5914 C   0  0  1  0  0  0  0  0  0  0  0  0
  -17.0966   -8.9592   10.1560 C   0  0  1  0  0  0  0  0  0  0  0  0
  -18.5122   -8.8515    9.6758 C   0  0  1  0  0  0  0  0  0  0  0  0
  -19.4417   -9.8100   10.3700 C   0  0  0  0  0  0  0  0  0  0  0  0
  -16.0161    0.5095    7.8246 O   0  0  0  0  0  0  0  0  0  0  0  0
  -16.2580    1.5389   10.1972 O   0  0  0  0  0  0  0  0  0  0  0  0
  -21.0199  -10.3898   12.2118 P   0  0  1  0  0  5  0  0  0  0  0  0
  -20.0580  -10.8440   13.5258 O   0  0  0  0  0  0  0  0  0  0  0  0
  -21.3669  -11.7618   11.2919 O   0  0  0  0  0  0  0  0  0  0  0  0
  -22.3250   -9.8711   12.7743 O   0  0  0  0  0  0  0  0  0  0  0  0
  -20.2454   -9.1883   11.3094 O   0  0  0  0  0  0  0  0  0  0  0  0
  -18.8145   -7.5158    9.9377 O   0  0  0  0  0  0  0  0  0  0  0  0
  -17.6361   -5.4996    9.6852 N   0  0  0  0  0  0  0  0  0  0  0  0
  -16.9004   -4.5711    9.0649 C   0  0  0  0  0  0  0  0  0  0  0  0
  -16.1363   -4.5891    7.9832 N   0  0  0  0  0  0  0  0  0  0  0  0
  -15.6340   -2.3220    8.2868 N   0  0  0  0  0  0  0  0  0  0  0  0
  -16.4058   -2.2650    9.3967 C   0  0  0  0  0  0  0  0  0  0  0  0
  -16.5035   -1.0566   10.0718 O   0  0  0  0  0  0  0  0  0  0  0  0
  -17.0553   -3.4143    9.7975 C   0  0  0  0  0  0  0  0  0  0  0  0
  -17.8619   -3.6760   10.8142 N   0  0  0  0  0  0  0  0  0  0  0  0
  -18.2391   -4.9755   10.7657 C   0  0  0  0  0  0  0  0  0  0  0  0
  -15.8450   -7.9434    8.3810 O   0  0  0  0  0  0  0  0  0  0  0  0
  -16.4198  -10.0622    9.6305 O   0  0  0  0  0  0  0  0  0  0  0  0
  1  2  1  6
  4  5  1  0
  5  6  1  0
  6  7  1  0
  7  8  1  0
  1  9  1  0
  1 10  2  0
 11 12  1  1
 11 13  1  0
 11 14  2  0
  8 15  1  1
 11 15  1  0
  4 16  1  0
  7 16  1  1
  4 17  1  1
 17 18  1  0
  3 19  2  0
 18 19  1  0
  3 20  1  0
 20 21  2  0
  1 22  1  0
 21 22  1  0
 18 23  2  0
 21 23  1  0
 23 24  1  0
 17 25  1  0
 24 25  2  0
  5 26  1  6
  6 27  1  6
M  END
$$$$
