1N2V_BDI_A_900
     RDKit          3D

 15 16  0  0  0  0  0  0  0  0999 V2000
   17.5748   17.2853   20.7100 N   0  0  0  0  0  0  0  0  0  0  0  0
   16.5942   17.0348   19.8241 C   0  0  0  0  0  0  0  0  0  0  0  0
   16.6375   16.9676   18.3455 C   0  0  0  0  0  0  0  0  0  0  0  0
   15.9588   18.1435   17.6948 C   0  0  0  0  0  0  0  0  0  0  0  0
   16.2999   18.0838   16.2050 C   0  0  0  0  0  0  0  0  0  0  0  0
   15.4765   19.0871   15.4306 C   0  0  0  0  0  0  0  0  0  0  0  0
   15.4766   16.8392   20.5611 N   0  0  0  0  0  0  0  0  0  0  0  0
   15.7531   16.9643   21.8658 C   0  0  0  0  0  0  0  0  0  0  0  0
   14.9460   16.8538   22.9937 C   0  0  0  0  0  0  0  0  0  0  0  0
   15.5389   17.0389   24.1820 N   0  0  0  0  0  0  0  0  0  0  0  0
   16.8247   17.3148   24.3218 N   0  0  0  0  0  0  0  0  0  0  0  0
   17.6345   17.4276   23.2284 C   0  0  0  0  0  0  0  0  0  0  0  0
   18.8620   17.6901   23.3437 O   0  0  0  0  0  0  0  0  0  0  0  0
   17.1030   17.2509   21.9546 C   0  0  0  0  0  0  0  0  0  0  0  0
   13.7353   16.5956   22.8930 O   0  0  0  0  0  0  0  0  0  0  0  0
  1  2  2  0
  3  2  1  6
  4  3  1  1
  4  5  1  0
  5  6  1  6
  2  7  1  0
  7  8  1  0
  8  9  1  0
  9 10  1  0
 10 11  1  0
 11 12  1  0
 12 13  2  0
  1 14  1  0
  8 14  2  0
 12 14  1  0
  9 15  2  0
M  END
$$$$
