7A9H_TPP_BBB_702
     RDKit          3D

 45 46  0  0  0  0  0  0  0  0999 V2000
  -10.2005  -16.1305  -35.8187 N   0  0  0  0  0  0  0  0  0  0  0  0
  -11.0444  -16.5092  -34.8261 C   0  0  0  0  0  0  0  0  0  0  0  0
  -12.4167  -15.9289  -34.7480 C   0  0  1  0  0  0  0  0  0  0  0  0
  -10.6639  -17.4703  -33.9456 N   0  0  0  0  0  0  0  0  0  0  0  0
   -9.4322  -18.0446  -34.0019 C   0  0  0  0  0  0  0  0  0  0  0  0
   -9.1259  -19.0892  -33.0718 N   0  0  0  0  0  0  0  0  0  0  0  0
   -8.5090  -17.6123  -34.9843 C   0  0  0  0  0  0  0  0  0  0  0  0
   -8.9572  -16.6623  -35.9190 C   0  0  0  0  0  0  0  0  0  0  0  0
   -7.0906  -18.1460  -35.0726 C   0  0  2  0  0  0  0  0  0  0  0  0
   -6.1162  -17.0490  -35.1756 N   0  0  0  0  0  4  0  0  0  0  0  0
   -4.7969  -17.2270  -34.9192 C   0  0  0  0  0  0  0  0  0  0  0  0
   -3.9262  -15.8404  -35.2830 S   0  0  0  0  0  0  0  0  0  0  0  0
   -5.2785  -14.9594  -35.7583 C   0  0  0  0  0  0  0  0  0  0  0  0
   -6.4046  -15.7827  -35.6216 C   0  0  0  0  0  0  0  0  0  0  0  0
   -7.7920  -15.3592  -36.0325 C   0  0  2  0  0  0  0  0  0  0  0  0
   -5.2071  -13.6036  -36.4072 C   0  0  1  0  0  0  0  0  0  0  0  0
   -5.8041  -12.5264  -35.4990 C   0  0  2  0  0  0  0  0  0  0  0  0
   -4.8592  -11.4983  -35.3058 O   0  0  0  0  0  0  0  0  0  0  0  0
   -4.9866  -10.9284  -33.7016 P   0  0  2  0  0  5  0  0  0  0  0  0
   -6.2032  -10.0405  -33.5535 O   0  0  0  0  0  0  0  0  0  0  0  0
   -3.5997  -10.0341  -33.3235 O   0  0  0  0  0  0  0  0  0  0  0  0
   -5.0978  -12.2289  -32.6085 O   0  0  0  0  0  0  0  0  0  0  0  0
   -6.2267  -13.3383  -33.2360 P   0  0  2  0  0  5  0  0  0  0  0  0
   -6.6282  -12.9221  -34.6348 O   0  0  0  0  0  0  0  0  0  0  0  0
   -7.6028  -13.4331  -32.2507 O   0  0  0  0  0  0  0  0  0  0  0  0
   -5.4951  -14.8634  -33.3054 O   0  0  0  0  0  0  0  0  0  0  0  0
  -13.0674  -16.4165  -35.5025 H   0  0  0  0  0  0  0  0  0  0  0  0
  -12.8416  -16.0980  -33.7366 H   0  0  0  0  0  0  0  0  0  0  0  0
  -12.3865  -14.8362  -34.9442 H   0  0  0  0  0  0  0  0  0  0  0  0
   -9.8984  -19.5395  -32.5326 H   0  0  0  0  0  0  0  0  0  0  0  0
   -8.1819  -19.5253  -33.0077 H   0  0  0  0  0  0  0  0  0  0  0  0
   -8.3136  -16.3278  -36.7232 H   0  0  0  0  0  0  0  0  0  0  0  0
   -7.0218  -18.8148  -35.9594 H   0  0  0  0  0  0  0  0  0  0  0  0
   -6.8199  -18.7572  -34.1899 H   0  0  0  0  0  0  0  0  0  0  0  0
   -4.3632  -18.1578  -34.5773 H   0  0  0  0  0  0  0  0  0  0  0  0
   -8.5607  -15.7743  -35.3489 H   0  0  0  0  0  0  0  0  0  0  0  0
   -8.0289  -15.7302  -37.0500 H   0  0  0  0  0  0  0  0  0  0  0  0
   -7.8602  -14.2513  -36.0227 H   0  0  0  0  0  0  0  0  0  0  0  0
   -4.1523  -13.3528  -36.6488 H   0  0  0  0  0  0  0  0  0  0  0  0
   -5.7703  -13.6246  -37.3655 H   0  0  0  0  0  0  0  0  0  0  0  0
   -6.0574  -12.9913  -34.5210 H   0  0  0  0  0  0  0  0  0  0  0  0
   -6.7426  -12.1559  -35.9702 H   0  0  0  0  0  0  0  0  0  0  0  0
   -3.9404   -9.1618  -33.0022 H   0  0  0  0  0  0  0  0  0  0  0  0
   -8.0902  -12.5883  -32.4178 H   0  0  0  0  0  0  0  0  0  0  0  0
   -5.6667  -15.2685  -32.4171 H   0  0  0  0  0  0  0  0  0  0  0  0
  1  2  2  0
  2  3  1  0
  2  4  1  0
  4  5  2  0
  5  6  1  0
  5  7  1  0
  1  8  1  0
  7  8  2  0
  7  9  1  0
  9 10  1  0
 10 11  2  0
 11 12  1  0
 12 13  1  0
 10 14  1  0
 13 14  2  0
 14 15  1  0
 13 16  1  0
 16 17  1  0
 17 18  1  0
 19 18  1  6
 19 20  2  0
 19 21  1  0
 19 22  1  0
 23 22  1  1
 23 24  2  0
 23 25  1  0
 23 26  1  0
  3 27  1  6
  3 28  1  0
  3 29  1  0
  6 30  1  0
  6 31  1  0
  8 32  1  0
  9 33  1  6
  9 34  1  0
 11 35  1  0
 15 36  1  1
 15 37  1  0
 15 38  1  0
 16 39  1  6
 16 40  1  0
 17 41  1  1
 17 42  1  0
 21 43  1  0
 25 44  1  0
 26 45  1  0
M  CHG  1  10   1
M  END
