1R55_097_A_518
     RDKit          3D

 52 51  0  0  0  0  0  0  0  0999 V2000
    8.6677   14.0530   24.9985 N   0  0  0  0  0  0  0  0  0  0  0  0
   12.5719   16.5021   26.3545 C   0  0  0  0  0  0  0  0  0  0  0  0
    8.1039   11.0198   26.2150 O   0  0  0  0  0  0  0  0  0  0  0  0
    9.6683   14.8349   25.4326 C   0  0  0  0  0  0  0  0  0  0  0  0
    8.9713   18.5562   29.3420 O   0  0  0  0  0  0  0  0  0  0  0  0
    8.9910   12.6621   24.7149 C   0  0  1  0  0  0  0  0  0  0  0  0
   10.3353   12.5832   23.9798 C   0  0  1  0  0  0  0  0  0  0  0  0
   11.3703   13.4711   24.6970 C   0  0  0  0  0  0  0  0  0  0  0  0
   10.8310   11.1278   23.9540 C   0  0  0  0  0  0  0  0  0  0  0  0
    9.0114   11.8184   25.9785 C   0  0  0  0  0  0  0  0  0  0  0  0
   11.3841   11.5301   26.2791 C   0  0  0  0  0  0  0  0  0  0  0  0
    8.1463   17.4568   29.2712 N   0  0  0  0  0  0  0  0  0  0  0  0
    7.9952   17.0737   27.9940 C   0  0  0  0  0  0  0  0  0  0  0  0
    7.1222   17.5361   27.2639 O   0  0  0  0  0  0  0  0  0  0  0  0
    8.9684   16.0504   27.4788 C   0  0  1  0  0  0  0  0  0  0  0  0
    8.5587   14.7363   27.8255 O   0  0  0  0  0  0  0  0  0  0  0  0
    9.2057   16.1784   25.9750 C   0  0  1  0  0  0  0  0  0  0  0  0
   10.2599   17.2538   25.6782 C   0  0  0  0  0  0  0  0  0  0  0  0
   11.6110   16.7007   25.1991 C   0  0  2  0  0  0  0  0  0  0  0  0
   11.4062   15.3742   24.4687 C   0  0  0  0  0  0  0  0  0  0  0  0
   10.8609   14.5292   25.4246 O   0  0  0  0  0  0  0  0  0  0  0  0
   10.1386   13.0869   22.5389 C   0  0  0  0  0  0  0  0  0  0  0  0
   10.0948   12.0237   26.7544 N   0  0  0  0  0  0  0  0  0  0  0  0
    7.7559   14.4043   24.8774 H   0  0  0  0  0  0  0  0  0  0  0  0
   12.7137   17.4321   26.8643 H   0  0  0  0  0  0  0  0  0  0  0  0
   13.5117   16.1533   25.9807 H   0  0  0  0  0  0  0  0  0  0  0  0
   12.1683   15.7806   27.0340 H   0  0  0  0  0  0  0  0  0  0  0  0
    9.0736   18.8244   30.2685 H   0  0  0  0  0  0  0  0  0  0  0  0
    8.2237   12.2614   24.0859 H   0  0  0  0  0  0  0  0  0  0  0  0
   11.5073   13.1213   25.6987 H   0  0  0  0  0  0  0  0  0  0  0  0
   11.0200   14.4820   24.7168 H   0  0  0  0  0  0  0  0  0  0  0  0
   12.3023   13.4269   24.1733 H   0  0  0  0  0  0  0  0  0  0  0  0
   10.9672   10.7794   24.9565 H   0  0  0  0  0  0  0  0  0  0  0  0
   11.7624   11.0776   23.4296 H   0  0  0  0  0  0  0  0  0  0  0  0
   10.1086   10.5138   23.4579 H   0  0  0  0  0  0  0  0  0  0  0  0
   12.1427   11.7656   26.9962 H   0  0  0  0  0  0  0  0  0  0  0  0
   11.6208   11.9937   25.3444 H   0  0  0  0  0  0  0  0  0  0  0  0
   11.3338   10.4693   26.1486 H   0  0  0  0  0  0  0  0  0  0  0  0
    7.7277   17.0154   30.0453 H   0  0  0  0  0  0  0  0  0  0  0  0
    9.9064   16.2440   27.9562 H   0  0  0  0  0  0  0  0  0  0  0  0
    7.7082   14.5403   27.4020 H   0  0  0  0  0  0  0  0  0  0  0  0
    8.2921   16.4697   25.5003 H   0  0  0  0  0  0  0  0  0  0  0  0
   10.4266   17.8158   26.5733 H   0  0  0  0  0  0  0  0  0  0  0  0
    9.8722   17.8499   24.8786 H   0  0  0  0  0  0  0  0  0  0  0  0
   12.0372   17.4187   24.5298 H   0  0  0  0  0  0  0  0  0  0  0  0
   10.9801   14.6589   25.1409 H   0  0  0  0  0  0  0  0  0  0  0  0
   12.3488   15.0130   24.1142 H   0  0  0  0  0  0  0  0  0  0  0  0
   10.7463   15.5218   23.6396 H   0  0  0  0  0  0  0  0  0  0  0  0
    9.7937   14.0996   22.5589 H   0  0  0  0  0  0  0  0  0  0  0  0
    9.4158   12.4738   22.0422 H   0  0  0  0  0  0  0  0  0  0  0  0
   11.0696   13.0376   22.0139 H   0  0  0  0  0  0  0  0  0  0  0  0
   10.0188   12.4930   27.6164 H   0  0  0  0  0  0  0  0  0  0  0  0
  1  4  1  0
  6  1  1  0
  6  7  1  0
  7  8  1  1
  7  9  1  0
  3 10  2  0
  6 10  1  0
  5 12  1  0
 12 13  1  0
 13 14  2  0
 13 15  1  0
 15 16  1  0
  4 17  1  0
 15 17  1  0
 17 18  1  0
  2 19  1  0
 18 19  1  0
 19 20  1  0
  4 21  2  0
  7 22  1  0
 10 23  1  0
 11 23  1  0
  1 24  1  0
  2 25  1  0
  2 26  1  0
  2 27  1  0
  5 28  1  0
  6 29  1  6
  8 30  1  0
  8 31  1  0
  8 32  1  0
  9 33  1  0
  9 34  1  0
  9 35  1  0
 11 36  1  0
 11 37  1  0
 11 38  1  0
 12 39  1  0
 15 40  1  1
 16 41  1  0
 17 42  1  6
 18 43  1  0
 18 44  1  0
 19 45  1  6
 20 46  1  0
 20 47  1  0
 20 48  1  0
 22 49  1  0
 22 50  1  0
 22 51  1  0
 23 52  1  0
M  END
