7ED2_A3P_A_301
     RDKit          3D

 42 44  0  0  0  0  0  0  0  0999 V2000
  -11.6311   -7.7545   20.4546 P   0  0  2  0  0  5  0  0  0  0  0  0
  -11.2205   -8.3493   21.7828 O   0  0  0  0  0  0  0  0  0  0  0  0
  -11.1540   -6.1325   20.4077 O   0  0  0  0  0  0  0  0  0  0  0  0
  -13.3145   -7.8401   20.2960 O   0  0  0  0  0  0  0  0  0  0  0  0
  -12.5952  -13.7998   17.9587 P   0  0  2  0  0  5  0  0  0  0  0  0
  -13.7232  -13.6555   16.9615 O   0  0  0  0  0  0  0  0  0  0  0  0
  -11.4035  -14.8168   17.3173 O   0  0  0  0  0  0  0  0  0  0  0  0
  -13.1991  -14.4888   19.3809 O   0  0  0  0  0  0  0  0  0  0  0  0
  -11.9411  -12.2669   18.3197 O   0  0  0  0  0  0  0  0  0  0  0  0
  -11.9703  -11.4827   17.1499 C   0  0  1  0  0  0  0  0  0  0  0  0
  -11.1751  -10.1913   17.3804 C   0  0  1  0  0  0  0  0  0  0  0  0
  -11.0434   -9.5076   16.1505 O   0  0  0  0  0  0  0  0  0  0  0  0
  -11.8580   -9.2710   18.4031 C   0  0  1  0  0  0  0  0  0  0  0  0
  -10.8789   -8.5927   19.1703 O   0  0  0  0  0  0  0  0  0  0  0  0
  -12.5720   -8.2878   17.5102 C   0  0  1  0  0  0  0  0  0  0  0  0
  -12.6710   -7.0121   18.0886 O   0  0  0  0  0  0  0  0  0  0  0  0
  -11.6890   -8.2601   16.2745 C   0  0  2  0  0  0  0  0  0  0  0  0
  -12.4839   -7.9833   15.0772 N   0  0  0  0  0  0  0  0  0  0  0  0
  -13.1049   -8.8746   14.2601 C   0  0  0  0  0  0  0  0  0  0  0  0
  -13.8580   -8.2846   13.2907 N   0  0  0  0  0  0  0  0  0  0  0  0
  -13.6914   -6.9725   13.5431 C   0  0  0  0  0  0  0  0  0  0  0  0
  -14.2425   -5.8708   12.8988 C   0  0  0  0  0  0  0  0  0  0  0  0
  -15.1068   -6.0130   11.7715 N   0  0  0  0  0  0  0  0  0  0  0  0
  -13.9338   -4.6319   13.3871 N   0  0  0  0  0  0  0  0  0  0  0  0
  -13.1123   -4.4766   14.4753 C   0  0  0  0  0  0  0  0  0  0  0  0
  -12.5779   -5.5676   15.1028 N   0  0  0  0  0  0  0  0  0  0  0  0
  -12.8812   -6.7935   14.6111 C   0  0  0  0  0  0  0  0  0  0  0  0
  -11.3237   -5.7947   21.3234 H   0  0  0  0  0  0  0  0  0  0  0  0
  -13.6176   -8.3371   21.0972 H   0  0  0  0  0  0  0  0  0  0  0  0
  -11.8353  -15.7066   17.2622 H   0  0  0  0  0  0  0  0  0  0  0  0
  -13.1732  -13.7561   20.0471 H   0  0  0  0  0  0  0  0  0  0  0  0
  -11.4937  -12.0347   16.3087 H   0  0  0  0  0  0  0  0  0  0  0  0
  -13.0137  -11.2124   16.8652 H   0  0  0  0  0  0  0  0  0  0  0  0
  -10.1580  -10.4709   17.7337 H   0  0  0  0  0  0  0  0  0  0  0  0
  -12.6240   -9.7970   19.0228 H   0  0  0  0  0  0  0  0  0  0  0  0
  -13.5853   -8.6779   17.2499 H   0  0  0  0  0  0  0  0  0  0  0  0
  -12.7244   -7.1538   19.0697 H   0  0  0  0  0  0  0  0  0  0  0  0
  -10.9031   -7.4788   16.3859 H   0  0  0  0  0  0  0  0  0  0  0  0
  -13.0262   -9.9480   14.3744 H   0  0  0  0  0  0  0  0  0  0  0  0
  -15.1237   -6.8961   11.2148 H   0  0  0  0  0  0  0  0  0  0  0  0
  -15.7337   -5.2276   11.4890 H   0  0  0  0  0  0  0  0  0  0  0  0
  -12.8879   -3.4841   14.8408 H   0  0  0  0  0  0  0  0  0  0  0  0
  1  2  2  0
  1  3  1  1
  1  4  1  0
  5  6  2  0
  5  7  1  6
  5  8  1  0
  5  9  1  0
  9 10  1  0
 11 10  1  0
 11 12  1  0
 11 13  1  0
  1 14  1  0
 13 14  1  0
 13 15  1  0
 15 16  1  0
 12 17  1  0
 15 17  1  0
 17 18  1  0
 18 19  1  0
 19 20  2  0
 20 21  1  0
 21 22  2  0
 22 23  1  0
 22 24  1  0
 24 25  2  0
 25 26  1  0
 18 27  1  0
 21 27  1  0
 26 27  2  0
  3 28  1  0
  4 29  1  0
  7 30  1  0
  8 31  1  0
 10 32  1  6
 10 33  1  0
 11 34  1  1
 13 35  1  1
 15 36  1  6
 16 37  1  0
 17 38  1  1
 19 39  1  0
 23 40  1  0
 23 41  1  0
 25 42  1  0
M  END
