
     RDKit          3D

 10 10  0  0  0  0  0  0  0  0999 V2000
   21.6462   12.7196   61.8053 C   0  0  0  0  0  0  0  0  0  0  0  0
   21.3278   11.6278   62.2386 O   0  0  0  0  0  0  0  0  0  0  0  0
   22.0145   12.8796   60.5216 O   0  0  0  0  0  0  0  0  0  0  0  0
   21.6800   13.9862   62.5760 C   0  0  0  0  0  0  0  0  0  0  0  0
   20.7857   14.1377   63.6437 C   0  0  0  0  0  0  0  0  0  0  0  0
   20.7854   15.3148   64.3944 C   0  0  0  0  0  0  0  0  0  0  0  0
   21.6761   16.3345   64.0770 C   0  0  0  0  0  0  0  0  0  0  0  0
   22.5709   16.1999   63.0194 C   0  0  0  0  0  0  0  0  0  0  0  0
   22.5729   15.0219   62.2664 C   0  0  0  0  0  0  0  0  0  0  0  0
   21.6403   17.4655   64.8368 O   0  0  0  0  0  0  0  0  0  0  0  0
  1  2  2  0
  1  3  1  0
  1  4  1  0
  4  5  4  0
  5  6  4  0
  6  7  4  0
  7  8  4  0
  4  9  4  0
  8  9  4  0
  7 10  1  0
M  END
