7JMV_4NC_A_301
     RDKit          3D

 11 11  0  0  0  0  0  0  0  0999 V2000
   32.5289  -25.5361  -12.2370 C   0  0  0  0  0  0  0  0  0  0  0  0
   31.1602  -25.6277  -12.3455 C   0  0  0  0  0  0  0  0  0  0  0  0
   30.5940  -25.6444  -13.6045 C   0  0  0  0  0  0  0  0  0  0  0  0
   31.4248  -25.5686  -14.7045 C   0  0  0  0  0  0  0  0  0  0  0  0
   32.8046  -25.4766  -14.5762 C   0  0  0  0  0  0  0  0  0  0  0  0
   33.3792  -25.4592  -13.3189 C   0  0  0  0  0  0  0  0  0  0  0  0
   33.1119  -25.5184  -10.9612 O   0  0  0  0  0  0  0  0  0  0  0  0
   30.3076  -25.7048  -11.2577 O   0  0  0  0  0  0  0  0  0  0  0  0
   30.8782  -25.5831  -16.0201 N   0  0  0  0  0  0  0  0  0  0  0  0
   29.6388  -25.6311  -16.1727 O   0  0  0  0  0  0  0  0  0  0  0  0
   31.7573  -25.5427  -17.0857 O   0  0  0  0  0  0  0  0  0  0  0  0
  1  2  2  0
  2  3  1  0
  3  4  2  0
  4  5  1  0
  1  6  1  0
  5  6  2  0
  1  7  1  0
  2  8  1  0
  4  9  1  0
  9 10  2  0
  9 11  1  0
M  CHG  2   9   1  11  -1
M  END
$$$$
