7OCB_V88_B_301
     RDKit          3D

 88 92  0  0  0  0  0  0  0  0999 V2000
   -4.3404  -21.9208    1.7860 N   0  0  0  0  0  0  0  0  0  0  0  0
   -9.5453  -23.2483   -3.2571 N   0  0  0  0  0  0  0  0  0  0  0  0
   -6.9981  -20.7469   -2.3696 C   0  0  0  0  0  0  0  0  0  0  0  0
   -5.0392  -21.2200   -0.7752 C   0  0  1  0  0  0  0  0  0  0  0  0
   -6.1152  -21.9968   -0.0039 C   0  0  0  0  0  0  0  0  0  0  0  0
   -5.5464  -22.6243    1.2860 C   0  0  0  0  0  0  0  0  0  0  0  0
   -3.9872  -22.3506    3.1668 C   0  0  1  0  0  0  0  0  0  0  0  0
   -2.4694  -22.5548    3.2836 C   0  0  0  0  0  0  0  0  0  0  0  0
   -8.9400  -21.9840   -2.9463 C   0  0  0  0  0  0  0  0  0  0  0  0
  -11.5348  -22.4457   -2.0332 C   0  0  0  0  0  0  0  0  0  0  0  0
   -9.2578  -22.4149   -1.2176 C   0  0  0  0  0  0  0  0  0  0  0  0
   -9.3371  -17.2309   -2.3490 C   0  0  0  0  0  0  0  0  0  0  0  0
   -9.5610  -14.7373   -2.6881 C   0  0  0  0  0  0  0  0  0  0  0  0
   -8.2384  -14.4567   -1.9595 C   0  0  0  0  0  0  0  0  0  0  0  0
   -6.3309  -16.5170   -4.5002 C   0  0  0  0  0  0  0  0  0  0  0  0
   -4.3514  -16.7598   -6.1520 C   0  0  0  0  0  0  0  0  0  0  0  0
   -3.4271  -14.6605   -6.9799 C   0  0  0  0  0  0  0  0  0  0  0  0
   -5.6005  -20.7451   -2.0512 N   0  0  0  0  0  0  0  0  0  0  0  0
   -6.6853  -15.1156   -2.6587 C   0  0  0  0  0  0  0  0  0  0  0  0
   -7.4230  -15.8948   -1.7267 O   0  0  0  0  0  0  0  0  0  0  0  0
   -7.9749  -17.1554   -2.0058 C   0  0  0  0  0  0  0  0  0  0  0  0
   -4.4455  -20.4580    1.6096 C   0  0  0  0  0  0  0  0  0  0  0  0
   -4.4480  -20.0915    0.1131 C   0  0  0  0  0  0  0  0  0  0  0  0
  -10.8768  -23.6195   -2.7823 C   0  0  0  0  0  0  0  0  0  0  0  0
  -10.9969  -21.4220    0.1108 C   0  0  0  0  0  0  0  0  0  0  0  0
   -9.1255  -19.6403   -2.6461 C   0  0  0  0  0  0  0  0  0  0  0  0
   -9.9110  -18.4830   -2.6559 C   0  0  0  0  0  0  0  0  0  0  0  0
   -7.1973  -18.3260   -1.9705 C   0  0  0  0  0  0  0  0  0  0  0  0
   -7.0454  -15.2773   -2.4769 C   0  0  0  0  0  0  0  0  0  0  0  0
   -5.2762  -16.0186   -5.4080 C   0  0  0  0  0  0  0  0  0  0  0  0
   -3.4162  -16.0688   -6.9451 C   0  0  0  0  0  0  0  0  0  0  0  0
   -4.3715  -13.9439   -6.2202 C   0  0  0  0  0  0  0  0  0  0  0  0
   -7.7574  -19.5633   -2.3221 C   0  0  0  0  0  0  0  0  0  0  0  0
   -5.2858  -14.6583   -5.4413 C   0  0  0  0  0  0  0  0  0  0  0  0
   -6.3208  -14.1253   -4.5345 C   0  0  0  0  0  0  0  0  0  0  0  0
   -4.5003  -21.4005    4.2699 C   0  0  0  0  0  0  0  0  0  0  0  0
   -7.6108  -21.9252   -2.6615 N   0  0  0  0  0  0  0  0  0  0  0  0
  -10.5297  -21.6785   -1.2640 N   0  0  0  0  0  0  0  0  0  0  0  0
   -9.6817  -20.8425   -2.9459 N   0  0  0  0  0  0  0  0  0  0  0  0
   -7.0116  -15.3113   -3.9581 N   0  0  0  0  0  0  0  0  0  0  0  0
  -10.0779  -16.0350   -2.3802 O   0  0  0  0  0  0  0  0  0  0  0  0
   -9.0370  -23.9074   -3.8930 H   0  0  0  0  0  0  0  0  0  0  0  0
   -4.2116  -21.9278   -1.0133 H   0  0  0  0  0  0  0  0  0  0  0  0
   -6.9469  -21.3058    0.2605 H   0  0  0  0  0  0  0  0  0  0  0  0
   -6.5375  -22.7979   -0.6479 H   0  0  0  0  0  0  0  0  0  0  0  0
   -5.2699  -23.6791    1.0709 H   0  0  0  0  0  0  0  0  0  0  0  0
   -6.3520  -22.6412    2.0534 H   0  0  0  0  0  0  0  0  0  0  0  0
   -4.4407  -23.3502    3.3646 H   0  0  0  0  0  0  0  0  0  0  0  0
   -2.2262  -23.0175    4.2669 H   0  0  0  0  0  0  0  0  0  0  0  0
   -1.9222  -21.5919    3.2082 H   0  0  0  0  0  0  0  0  0  0  0  0
   -2.1144  -23.2395    2.4829 H   0  0  0  0  0  0  0  0  0  0  0  0
  -12.2995  -22.8717   -1.3450 H   0  0  0  0  0  0  0  0  0  0  0  0
  -12.0748  -21.7894   -2.7569 H   0  0  0  0  0  0  0  0  0  0  0  0
   -8.8584  -22.5555   -2.2448 H   0  0  0  0  0  0  0  0  0  0  0  0
   -9.3890  -23.4131   -0.7429 H   0  0  0  0  0  0  0  0  0  0  0  0
   -8.4960  -21.8381   -0.6504 H   0  0  0  0  0  0  0  0  0  0  0  0
   -9.4201  -14.6391   -3.7838 H   0  0  0  0  0  0  0  0  0  0  0  0
  -10.3141  -13.9725   -2.4057 H   0  0  0  0  0  0  0  0  0  0  0  0
   -8.3879  -14.7233   -0.8919 H   0  0  0  0  0  0  0  0  0  0  0  0
   -7.9964  -13.3754   -1.9895 H   0  0  0  0  0  0  0  0  0  0  0  0
   -5.8709  -17.1604   -3.7181 H   0  0  0  0  0  0  0  0  0  0  0  0
   -7.0598  -17.1097   -5.0889 H   0  0  0  0  0  0  0  0  0  0  0  0
   -4.3504  -17.8420   -6.1227 H   0  0  0  0  0  0  0  0  0  0  0  0
   -2.7138  -14.1301   -7.5969 H   0  0  0  0  0  0  0  0  0  0  0  0
   -5.0044  -20.0861   -2.6063 H   0  0  0  0  0  0  0  0  0  0  0  0
   -5.7124  -15.5989   -2.8794 H   0  0  0  0  0  0  0  0  0  0  0  0
   -7.2734  -14.9882   -3.5912 H   0  0  0  0  0  0  0  0  0  0  0  0
   -6.5018  -14.1152   -2.2175 H   0  0  0  0  0  0  0  0  0  0  0  0
   -5.3850  -20.0856    2.0777 H   0  0  0  0  0  0  0  0  0  0  0  0
   -3.5961  -19.9347    2.0958 H   0  0  0  0  0  0  0  0  0  0  0  0
   -5.0226  -19.1537    0.0192 H   0  0  0  0  0  0  0  0  0  0  0  0
   -3.4083  -19.8782   -0.2215 H   0  0  0  0  0  0  0  0  0  0  0  0
  -10.7770  -24.4889   -2.0989 H   0  0  0  0  0  0  0  0  0  0  0  0
  -11.5092  -23.9359   -3.6418 H   0  0  0  0  0  0  0  0  0  0  0  0
  -10.2306  -20.8483    0.6769 H   0  0  0  0  0  0  0  0  0  0  0  0
  -11.2069  -22.3705    0.6535 H   0  0  0  0  0  0  0  0  0  0  0  0
  -11.9122  -20.7983    0.1009 H   0  0  0  0  0  0  0  0  0  0  0  0
  -10.9612  -18.5755   -2.9022 H   0  0  0  0  0  0  0  0  0  0  0  0
   -6.1550  -18.2675   -1.6898 H   0  0  0  0  0  0  0  0  0  0  0  0
   -7.0315  -16.2988   -2.0339 H   0  0  0  0  0  0  0  0  0  0  0  0
   -6.1396  -14.7582   -2.0886 H   0  0  0  0  0  0  0  0  0  0  0  0
   -2.6873  -16.6218   -7.5308 H   0  0  0  0  0  0  0  0  0  0  0  0
   -4.3888  -12.8613   -6.2420 H   0  0  0  0  0  0  0  0  0  0  0  0
   -7.0465  -13.5213   -5.1092 H   0  0  0  0  0  0  0  0  0  0  0  0
   -5.8252  -13.4868   -3.7698 H   0  0  0  0  0  0  0  0  0  0  0  0
   -4.3280  -21.8562    5.2703 H   0  0  0  0  0  0  0  0  0  0  0  0
   -5.5875  -21.2212    4.1606 H   0  0  0  0  0  0  0  0  0  0  0  0
   -3.9667  -20.4280    4.2362 H   0  0  0  0  0  0  0  0  0  0  0  0
  4  5  1  0
  1  6  1  0
  5  6  1  0
  1  7  1  0
  7  8  1  0
  2  9  1  0
 13 14  1  0
  4 18  1  0
  3 18  1  0
 19 20  1  0
 12 21  4  0
 20 21  1  0
  1 22  1  0
  4 23  1  0
 22 23  1  0
 10 24  1  0
  2 24  1  0
 26 27  4  0
 12 27  4  0
 21 28  4  0
 14 29  1  0
 15 30  1  0
 16 30  4  0
 17 31  4  0
 16 31  4  0
 17 32  4  0
  3 33  4  0
 26 33  4  0
 28 33  4  0
 32 34  4  0
 30 34  4  0
 34 35  1  0
  7 36  1  0
  9 37  4  0
  3 37  4  0
 25 38  1  0
 11 38  1  0
 10 38  1  0
  9 39  4  0
 26 39  4  0
 35 40  1  0
 29 40  1  0
 15 40  1  0
 12 41  1  0
 13 41  1  0
  2 42  1  0
  4 43  1  1
  5 44  1  0
  5 45  1  0
  6 46  1  0
  6 47  1  0
  7 48  1  6
  8 49  1  0
  8 50  1  0
  8 51  1  0
 10 52  1  0
 10 53  1  0
 11 54  1  0
 11 55  1  0
 11 56  1  0
 13 57  1  0
 13 58  1  0
 14 59  1  0
 14 60  1  0
 15 61  1  0
 15 62  1  0
 16 63  1  0
 17 64  1  0
 18 65  1  0
 19 66  1  0
 19 67  1  0
 19 68  1  0
 22 69  1  0
 22 70  1  0
 23 71  1  0
 23 72  1  0
 24 73  1  0
 24 74  1  0
 25 75  1  0
 25 76  1  0
 25 77  1  0
 27 78  1  0
 28 79  1  0
 29 80  1  0
 29 81  1  0
 31 82  1  0
 32 83  1  0
 35 84  1  0
 35 85  1  0
 36 86  1  0
 36 87  1  0
 36 88  1  0
M  END
