7OLT_58J_A_402
     RDKit          3D

 39 41  0  0  0  0  0  0  0  0999 V2000
  -28.2872  -23.3688   -9.9566 C   0  0  0  0  0  0  0  0  0  0  0  0
  -28.6583  -22.6262  -12.3251 C   0  0  0  0  0  0  0  0  0  0  0  0
  -29.7454  -22.2728  -13.0389 C   0  0  0  0  0  0  0  0  0  0  0  0
  -32.2029  -21.9117  -13.1104 C   0  0  0  0  0  0  0  0  0  0  0  0
  -32.6804  -24.3036  -11.7462 C   0  0  0  0  0  0  0  0  0  0  0  0
  -27.3406  -22.0727  -12.6672 C   0  0  0  0  0  0  0  0  0  0  0  0
  -26.5086  -19.7136   -8.5696 C   0  0  0  0  0  0  0  0  0  0  0  0
  -35.7591  -24.9552  -12.5474 C   0  0  1  0  0  0  0  0  0  0  0  0
  -27.0485  -21.8340  -13.8705 O   0  0  0  0  0  0  0  0  0  0  0  0
  -26.3748  -21.8132  -11.6464 N   0  0  0  0  0  0  0  0  0  0  0  0
  -26.7660  -21.3624  -10.3410 C   0  0  0  0  0  0  0  0  0  0  0  0
  -27.7053  -22.0669   -9.5459 C   0  0  0  0  0  0  0  0  0  0  0  0
  -26.1674  -20.1979   -9.8324 C   0  0  0  0  0  0  0  0  0  0  0  0
  -27.4417  -20.3948   -7.7912 C   0  0  0  0  0  0  0  0  0  0  0  0
  -28.0290  -21.5667   -8.2700 C   0  0  0  0  0  0  0  0  0  0  0  0
  -28.7184  -23.6369  -11.3052 N   0  0  0  0  0  0  0  0  0  0  0  0
  -29.1401  -24.9957  -11.6638 C   0  0  1  0  0  0  0  0  0  0  0  0
  -28.4454  -24.2574   -9.0739 O   0  0  0  0  0  0  0  0  0  0  0  0
  -31.1220  -22.7243  -12.7406 C   0  0  0  0  0  0  0  0  0  0  0  0
  -31.3696  -23.9138  -12.0338 C   0  0  0  0  0  0  0  0  0  0  0  0
  -33.7621  -23.5077  -12.1392 C   0  0  0  0  0  0  0  0  0  0  0  0
  -35.0586  -23.9446  -11.8293 O   0  0  0  0  0  0  0  0  0  0  0  0
  -33.5142  -22.3020  -12.8223 C   0  0  0  0  0  0  0  0  0  0  0  0
  -29.6246  -21.6139  -13.8915 H   0  0  0  0  0  0  0  0  0  0  0  0
  -32.0313  -20.9796  -13.6351 H   0  0  0  0  0  0  0  0  0  0  0  0
  -32.8567  -25.2260  -11.2075 H   0  0  0  0  0  0  0  0  0  0  0  0
  -26.0474  -18.8094   -8.1936 H   0  0  0  0  0  0  0  0  0  0  0  0
  -35.0481  -25.5552  -13.1537 H   0  0  0  0  0  0  0  0  0  0  0  0
  -36.2659  -25.6277  -11.8254 H   0  0  0  0  0  0  0  0  0  0  0  0
  -36.5273  -24.4943  -13.2037 H   0  0  0  0  0  0  0  0  0  0  0  0
  -25.4028  -21.5938  -11.9631 H   0  0  0  0  0  0  0  0  0  0  0  0
  -25.4412  -19.6564  -10.4260 H   0  0  0  0  0  0  0  0  0  0  0  0
  -27.7034  -20.0202   -6.8100 H   0  0  0  0  0  0  0  0  0  0  0  0
  -28.7398  -22.0872   -7.6396 H   0  0  0  0  0  0  0  0  0  0  0  0
  -29.7674  -25.4481  -10.8658 H   0  0  0  0  0  0  0  0  0  0  0  0
  -29.7405  -24.9684  -12.5977 H   0  0  0  0  0  0  0  0  0  0  0  0
  -28.2480  -25.6380  -11.8211 H   0  0  0  0  0  0  0  0  0  0  0  0
  -30.5517  -24.5330  -11.6892 H   0  0  0  0  0  0  0  0  0  0  0  0
  -34.3263  -21.6590  -13.1329 H   0  0  0  0  0  0  0  0  0  0  0  0
  2  3  2  0
  2  6  1  0
  6  9  2  0
  6 10  1  0
 10 11  1  0
 11 12  2  0
  1 12  1  0
  7 13  2  0
 11 13  1  0
  7 14  1  0
 14 15  2  0
 12 15  1  0
  2 16  1  0
  1 16  1  0
 16 17  1  0
  1 18  2  0
  3 19  1  0
  4 19  2  0
 19 20  1  0
  5 20  2  0
  5 21  1  0
 21 22  1  0
  8 22  1  0
  4 23  1  0
 21 23  2  0
  3 24  1  0
  4 25  1  0
  5 26  1  0
  7 27  1  0
  8 28  1  6
  8 29  1  0
  8 30  1  0
 10 31  1  0
 13 32  1  0
 14 33  1  0
 15 34  1  0
 17 35  1  1
 17 36  1  0
 17 37  1  0
 20 38  1  0
 23 39  1  0
M  END
