@<TRIPOS>MOLECULE
1Y6B_AAX_A_201
 58 62 0 0 0
SMALL
GASTEIGER

@<TRIPOS>ATOM
      1 O          -0.0370   31.0440   21.3050 O.2     1  UNL1       -0.1530
      2 S          -0.6050   29.7780   21.5610 S.O2    1  UNL1        0.0585
      3 O          -0.4770   29.4350   22.9410 O.2     1  UNL1       -0.1530
      4 N          -2.1000   29.8570   21.0210 N.3     1  UNL1       -0.1897
      5 C          -2.2810   30.1240   19.5940 C.3     1  UNL1        0.0203
      6 C          -3.6970   30.5820   19.2470 C.3     1  UNL1       -0.0268
      7 C          -3.8610   31.1220   17.8270 C.3     1  UNL1       -0.0487
      8 C          -3.9060   32.0700   19.0180 C.3     1  UNL1       -0.0487
      9 C           0.2570   28.6170   20.7720 C.ar    1  UNL1        0.1072
     10 C           0.0050   27.2850   21.0760 C.ar    1  UNL1       -0.0318
     11 C           0.7400   26.2640   20.4720 C.ar    1  UNL1       -0.0163
     12 C           1.2700   28.8870   19.8200 C.ar    1  UNL1       -0.0105
     13 C           2.0060   27.8680   19.1720 C.ar    1  UNL1        0.0787
     14 C           1.7270   26.5530   19.5100 C.ar    1  UNL1        0.1413
     15 O           2.4440   25.5730   18.8760 O.3     1  UNL1       -0.4933
     16 C           2.2720   24.1640   19.0970 C.3     1  UNL1        0.0789
     17 N           2.9390   28.1000   18.1570 N.pl3   1  UNL1       -0.2657
     18 C           2.8590   29.1080   17.2510 C.ar    1  UNL1        0.2924
     19 O           1.8350   29.9810   17.2650 O.2     1  UNL1       -0.4244
     20 C           2.1640   30.9010   16.3250 C.ar    1  UNL1        0.1569
     21 C           3.3500   30.5130   15.7030 C.ar    1  UNL1        0.0756
     22 N           3.8110   29.3800   16.3060 N.ar    1  UNL1       -0.2031
     23 C           1.2040   31.9670   16.0500 C.ar    1  UNL1        0.0195
     24 C           1.1520   32.5770   14.7970 C.ar    1  UNL1       -0.0433
     25 C           0.1910   33.5550   14.5390 C.ar    1  UNL1       -0.0158
     26 C          -0.7690   33.8790   15.5200 C.ar    1  UNL1       -0.0539
     27 C          -0.7460   33.1990   16.7340 C.ar    1  UNL1       -0.0605
     28 C           0.2190   32.2500   17.0030 C.ar    1  UNL1       -0.0510
     29 C           0.1890   34.2330   13.2050 C.ar    1  UNL1        0.0002
     30 C           0.0020   35.6210   13.0930 C.ar    1  UNL1        0.0352
     31 N           0.0310   36.2500   11.8970 N.ar    1  UNL1       -0.2627
     32 C           0.2250   35.5520   10.7720 C.ar    1  UNL1        0.0276
     33 C           0.4280   34.1700   10.8220 C.ar    1  UNL1       -0.0430
     34 C           0.3910   33.4920   12.0440 C.ar    1  UNL1       -0.0512
     35 H          -2.5732   30.6002   21.5349 H       1  UNL1        0.1480
     36 H          -2.0698   29.2272   19.0499 H       1  UNL1        0.0444
     37 H          -1.6141   30.9180   19.3299 H       1  UNL1        0.0444
     38 H          -4.1824   29.8468   19.8542 H       1  UNL1        0.0314
     39 H          -4.7532   30.9135   17.2744 H       1  UNL1        0.0268
     40 H          -3.2897   31.0659   16.9240 H       1  UNL1        0.0268
     41 H          -3.1012   32.7547   19.1865 H       1  UNL1        0.0268
     42 H          -4.6025   32.7986   19.3771 H       1  UNL1        0.0268
     43 H          -0.7341   27.0479   21.7562 H       1  UNL1        0.0638
     44 H           0.5575   25.2827   20.7342 H       1  UNL1        0.0655
     45 H           1.4804   29.8706   19.5890 H       1  UNL1        0.0657
     46 H           2.9541   23.6199   18.4776 H       1  UNL1        0.0660
     47 H           1.2683   23.8846   18.8532 H       1  UNL1        0.0660
     48 H           2.4655   23.9379   20.1248 H       1  UNL1        0.0660
     49 H           3.7086   27.4891   18.0948 H       1  UNL1        0.1566
     50 H           3.8041   31.0025   14.9161 H       1  UNL1        0.0869
     51 H           1.8233   32.3054   14.0617 H       1  UNL1        0.0631
     52 H          -1.4768   34.6083   15.3406 H       1  UNL1        0.0624
     53 H          -1.4634   33.4082   17.4457 H       1  UNL1        0.0618
     54 H           0.2143   31.7497   17.9056 H       1  UNL1        0.0625
     55 H          -0.1621   36.1757   13.9477 H       1  UNL1        0.0836
     56 H           0.2247   36.0373    9.8613 H       1  UNL1        0.0829
     57 H           0.6064   33.6465    9.9507 H       1  UNL1        0.0633
     58 H           0.5105   32.4677   12.0844 H       1  UNL1        0.0625
@<TRIPOS>BOND
     1     1     2    2
     2     2     3    2
     3     2     4    1
     4     4     5    1
     5     5     6    1
     6     6     7    1
     7     6     8    1
     8     7     8    1
     9     2     9    1
    10     9    10   ar
    11    10    11   ar
    12     9    12   ar
    13    12    13   ar
    14    11    14   ar
    15    13    14   ar
    16    14    15    1
    17    15    16    1
    18    13    17    1
    19    17    18    1
    20    18    19   ar
    21    19    20   ar
    22    20    21   ar
    23    18    22   ar
    24    21    22   ar
    25    20    23    1
    26    23    24   ar
    27    24    25   ar
    28    25    26   ar
    29    26    27   ar
    30    23    28   ar
    31    27    28   ar
    32    25    29    1
    33    29    30   ar
    34    30    31   ar
    35    31    32   ar
    36    32    33   ar
    37    29    34   ar
    38    33    34   ar
    39     4    35    1
    40     5    36    1
    41     5    37    1
    42     6    38    1
    43     7    39    1
    44     7    40    1
    45     8    41    1
    46     8    42    1
    47    10    43    1
    48    11    44    1
    49    12    45    1
    50    16    46    1
    51    16    47    1
    52    16    48    1
    53    17    49    1
    54    21    50    1
    55    24    51    1
    56    26    52    1
    57    27    53    1
    58    28    54    1
    59    30    55    1
    60    32    56    1
    61    33    57    1
    62    34    58    1
