@<TRIPOS>MOLECULE
1Y6B_AAX_A_201
 58 62 0 0 0
SMALL
GASTEIGER

@<TRIPOS>ATOM
      1 O          -4.4143    3.8547   -3.5892 O.2     1  UNL1       -0.1530
      2 S          -4.5733    2.5204   -2.9144 S.O2    1  UNL1        0.0585
      3 O          -5.6899    1.7752   -3.5898 O.2     1  UNL1       -0.1530
      4 N          -4.9735    2.7586   -1.2403 N.3     1  UNL1       -0.1897
      5 C          -3.8762    3.4501   -0.5622 C.3     1  UNL1        0.0203
      6 C          -4.2820    3.7572    0.8829 C.3     1  UNL1       -0.0268
      7 C          -3.1248    3.9561    1.8497 C.3     1  UNL1       -0.0487
      8 C          -3.9476    2.6774    1.9009 C.3     1  UNL1       -0.0487
      9 C          -3.0879    1.5826   -3.0597 C.ar    1  UNL1        0.1072
     10 C          -1.8954    2.1935   -3.4619 C.ar    1  UNL1       -0.0318
     11 C          -0.7185    1.4476   -3.5518 C.ar    1  UNL1       -0.0163
     12 C          -3.0907    0.2242   -2.7258 C.ar    1  UNL1       -0.0105
     13 C          -1.9094   -0.5288   -2.7829 C.ar    1  UNL1        0.0787
     14 C          -0.7146    0.0767   -3.2280 C.ar    1  UNL1        0.1413
     15 O           0.4425   -0.7084   -3.3579 O.3     1  UNL1       -0.4933
     16 C           1.7231   -0.2085   -3.7275 C.3     1  UNL1        0.0789
     17 N          -1.9521   -1.9153   -2.4121 N.pl3   1  UNL1       -0.2657
     18 C          -1.0041   -2.5048   -1.5155 C.ar    1  UNL1        0.2924
     19 O          -0.0549   -1.8306   -0.9089 O.2     1  UNL1       -0.4244
     20 C           0.6084   -2.6864   -0.1723 C.ar    1  UNL1        0.1569
     21 C           0.0226   -3.9284   -0.3395 C.ar    1  UNL1        0.0756
     22 N          -1.0105   -3.8153   -1.1972 N.ar    1  UNL1       -0.2031
     23 C           1.7755   -2.3293    0.6648 C.ar    1  UNL1        0.0195
     24 C           2.4229   -3.2848    1.4701 C.ar    1  UNL1       -0.0433
     25 C           3.5355   -2.9292    2.2561 C.ar    1  UNL1       -0.0158
     26 C           3.9958   -1.6014    2.2256 C.ar    1  UNL1       -0.0539
     27 C           3.3572   -0.6502    1.4286 C.ar    1  UNL1       -0.0605
     28 C           2.2542   -1.0094    0.6528 C.ar    1  UNL1       -0.0510
     29 C           4.2143   -3.9416    3.1051 C.ar    1  UNL1        0.0002
     30 C           3.4720   -4.8941    3.8262 C.ar    1  UNL1        0.0352
     31 N           4.1047   -5.8155    4.6010 N.ar    1  UNL1       -0.2627
     32 C           5.4588   -5.8540    4.7056 C.ar    1  UNL1        0.0276
     33 C           6.2394   -4.9307    4.0100 C.ar    1  UNL1       -0.0430
     34 C           5.6156   -3.9725    3.2093 C.ar    1  UNL1       -0.0512
     35 H          -5.0704    1.8075   -0.8149 H       1  UNL1        0.1480
     36 H          -2.9485    2.8348   -0.6014 H       1  UNL1        0.0444
     37 H          -3.6729    4.4191   -1.0667 H       1  UNL1        0.0444
     38 H          -5.1893    4.3620    1.0957 H       1  UNL1        0.0314
     39 H          -2.1042    3.8185    1.4324 H       1  UNL1        0.0268
     40 H          -3.3360    4.6587    2.6833 H       1  UNL1        0.0268
     41 H          -4.6470    2.6260    2.7618 H       1  UNL1        0.0268
     42 H          -3.4179    1.7819    1.5105 H       1  UNL1        0.0268
     43 H          -1.8732    3.2471   -3.7082 H       1  UNL1        0.0638
     44 H           0.1823    1.9457   -3.8827 H       1  UNL1        0.0655
     45 H          -4.0090   -0.2453   -2.3947 H       1  UNL1        0.0657
     46 H           1.6845    0.2235   -4.7497 H       1  UNL1        0.0660
     47 H           2.4525   -1.0440   -3.7221 H       1  UNL1        0.0660
     48 H           2.0575    0.5592   -2.9979 H       1  UNL1        0.0660
     49 H          -2.7988   -2.4744   -2.6622 H       1  UNL1        0.1566
     50 H           0.3196   -4.8597    0.1220 H       1  UNL1        0.0869
     51 H           2.0777   -4.3093    1.4769 H       1  UNL1        0.0631
     52 H           4.8388   -1.2943    2.8317 H       1  UNL1        0.0624
     53 H           3.7169    0.3707    1.4145 H       1  UNL1        0.0618
     54 H           1.7767   -0.2540    0.0405 H       1  UNL1        0.0625
     55 H           2.3905   -4.8956    3.7890 H       1  UNL1        0.0836
     56 H           5.9294   -6.6019    5.3297 H       1  UNL1        0.0829
     57 H           7.3185   -4.9594    4.0878 H       1  UNL1        0.0633
     58 H           6.2279   -3.2694    2.6588 H       1  UNL1        0.0625
@<TRIPOS>BOND
     1     1     2    2
     2     2     3    2
     3     2     4    1
     4     4     5    1
     5     5     6    1
     6     6     7    1
     7     6     8    1
     8     7     8    1
     9     2     9    1
    10     9    10   ar
    11    10    11   ar
    12     9    12   ar
    13    12    13   ar
    14    11    14   ar
    15    13    14   ar
    16    14    15    1
    17    15    16    1
    18    13    17    1
    19    17    18    1
    20    18    19   ar
    21    19    20   ar
    22    20    21   ar
    23    18    22   ar
    24    21    22   ar
    25    20    23    1
    26    23    24   ar
    27    24    25   ar
    28    25    26   ar
    29    26    27   ar
    30    23    28   ar
    31    27    28   ar
    32    25    29    1
    33    29    30   ar
    34    30    31   ar
    35    31    32   ar
    36    32    33   ar
    37    29    34   ar
    38    33    34   ar
    39     4    35    1
    40     5    36    1
    41     5    37    1
    42     6    38    1
    43     7    39    1
    44     7    40    1
    45     8    41    1
    46     8    42    1
    47    10    43    1
    48    11    44    1
    49    12    45    1
    50    16    46    1
    51    16    47    1
    52    16    48    1
    53    17    49    1
    54    21    50    1
    55    24    51    1
    56    26    52    1
    57    27    53    1
    58    28    54    1
    59    30    55    1
    60    32    56    1
    61    33    57    1
    62    34    58    1
