7TYP_KUR_A_602
     RDKit          3D

 66 71  0  0  0  0  0  0  0  0999 V2000
  -40.9462    2.4100   24.0089 N   0  0  0  0  0  0  0  0  0  0  0  0
  -35.6609    2.8607   21.2968 C   0  0  0  0  0  0  0  0  0  0  0  0
  -33.7388    2.3233   20.0525 C   0  0  0  0  0  0  0  0  0  0  0  0
  -34.4385    3.2154   20.8233 N   0  0  0  0  0  0  0  0  0  0  0  0
  -34.2871    1.0457   19.7825 C   0  0  0  0  0  0  0  0  0  0  0  0
  -37.2155    5.4638   23.3404 O   0  0  0  0  0  0  0  0  0  0  0  0
  -39.7907    2.0225   23.4024 C   0  0  0  0  0  0  0  0  0  0  0  0
  -37.5920    2.7030   22.3053 C   0  0  0  0  0  0  0  0  0  0  0  0
  -36.5342    3.5907   22.0719 C   0  0  0  0  0  0  0  0  0  0  0  0
  -36.1741    1.6472   21.0747 N   0  0  0  0  0  0  0  0  0  0  0  0
  -41.2268    3.7158   24.2504 C   0  0  0  0  0  0  0  0  0  0  0  0
  -40.3081    4.6913   23.8768 C   0  0  0  0  0  0  0  0  0  0  0  0
  -38.8604    3.0160   23.0063 C   0  0  0  0  0  0  0  0  0  0  0  0
  -37.3474    1.5272   21.6732 N   0  0  0  0  0  0  0  0  0  0  0  0
  -39.1547    4.3192   23.2672 N   0  0  0  0  0  0  0  0  0  0  0  0
  -39.5533    0.5556   23.1954 C   0  0  2  0  0  0  0  0  0  0  0  0
  -36.0473   -0.4194   20.1304 O   0  0  0  0  0  0  0  0  0  0  0  0
  -35.5352    0.7149   20.3276 C   0  0  0  0  0  0  0  0  0  0  0  0
  -32.4085    2.6901   19.5175 C   0  0  0  0  0  0  0  0  0  0  0  0
  -32.1315    2.5385   18.1498 C   0  0  0  0  0  0  0  0  0  0  0  0
  -30.8784    2.8838   17.6385 C   0  0  0  0  0  0  0  0  0  0  0  0
  -29.8641    3.3620   18.4897 C   0  0  0  0  0  0  0  0  0  0  0  0
  -30.1458    3.5082   19.8591 C   0  0  0  0  0  0  0  0  0  0  0  0
  -31.4037    3.1749   20.3678 C   0  0  0  0  0  0  0  0  0  0  0  0
  -28.5043    3.7817   17.9500 C   0  0  2  0  0  0  0  0  0  0  0  0
  -28.5063    5.2742   17.5428 C   0  0  2  0  0  0  0  0  0  0  0  0
  -29.0523    5.5215   16.1270 C   0  0  1  0  0  0  0  0  0  0  0  0
  -28.5100    4.5407   15.0626 C   0  0  2  0  0  0  0  0  0  0  0  0
  -27.4459    3.5818   15.6086 C   0  0  2  0  0  0  0  0  0  0  0  0
  -27.9769    2.8295   16.8345 C   0  0  2  0  0  0  0  0  0  0  0  0
  -36.3890    4.9812   22.5227 C   0  0  0  0  0  0  0  0  0  0  0  0
  -34.5201    5.8821   20.7810 C   0  0  2  0  0  0  0  0  0  0  0  0
  -33.8702    7.1891   21.1143 C   0  0  1  0  0  0  0  0  0  0  0  0
  -34.7166    7.0915   22.3475 C   0  0  1  0  0  0  0  0  0  0  0  0
  -32.3632    7.0940   21.3695 C   0  0  2  0  0  0  0  0  0  0  0  0
  -31.9963    8.0351   22.3115 F   0  0  0  0  0  0  0  0  0  0  0  0
  -35.3462    5.8043   22.0018 N   0  0  0  0  0  0  0  0  0  0  0  0
  -34.0432    4.1571   21.0425 H   0  0  0  0  0  0  0  0  0  0  0  0
  -33.7437    0.3201   19.1876 H   0  0  0  0  0  0  0  0  0  0  0  0
  -42.1531    3.9918   24.7359 H   0  0  0  0  0  0  0  0  0  0  0  0
  -40.5089    5.7373   24.0674 H   0  0  0  0  0  0  0  0  0  0  0  0
  -39.7415    0.2827   22.1356 H   0  0  0  0  0  0  0  0  0  0  0  0
  -40.2464   -0.0379   23.8263 H   0  0  0  0  0  0  0  0  0  0  0  0
  -38.5154    0.2891   23.4797 H   0  0  0  0  0  0  0  0  0  0  0  0
  -32.8940    2.1775   17.4715 H   0  0  0  0  0  0  0  0  0  0  0  0
  -30.7037    2.7699   16.5770 H   0  0  0  0  0  0  0  0  0  0  0  0
  -29.3911    3.8829   20.5386 H   0  0  0  0  0  0  0  0  0  0  0  0
  -31.5862    3.2801   21.4296 H   0  0  0  0  0  0  0  0  0  0  0  0
  -27.7716    3.7066   18.7865 H   0  0  0  0  0  0  0  0  0  0  0  0
  -27.4620    5.6552   17.5834 H   0  0  0  0  0  0  0  0  0  0  0  0
  -29.0901    5.8741   18.2747 H   0  0  0  0  0  0  0  0  0  0  0  0
  -30.1614    5.4726   16.1494 H   0  0  0  0  0  0  0  0  0  0  0  0
  -28.7872    6.5605   15.8307 H   0  0  0  0  0  0  0  0  0  0  0  0
  -28.0762    5.1150   14.2143 H   0  0  0  0  0  0  0  0  0  0  0  0
  -29.3534    3.9448   14.6517 H   0  0  0  0  0  0  0  0  0  0  0  0
  -26.5314    4.1481   15.8838 H   0  0  0  0  0  0  0  0  0  0  0  0
  -27.1657    2.8515   14.8197 H   0  0  0  0  0  0  0  0  0  0  0  0
  -28.7603    2.1210   16.4945 H   0  0  0  0  0  0  0  0  0  0  0  0
  -27.1561    2.2014   17.2443 H   0  0  0  0  0  0  0  0  0  0  0  0
  -33.8100    5.0281   20.7173 H   0  0  0  0  0  0  0  0  0  0  0  0
  -35.1655    5.9533   19.8766 H   0  0  0  0  0  0  0  0  0  0  0  0
  -34.1706    8.0161   20.4327 H   0  0  0  0  0  0  0  0  0  0  0  0
  -34.1389    7.0041   23.2940 H   0  0  0  0  0  0  0  0  0  0  0  0
  -35.4791    7.9012   22.3971 H   0  0  0  0  0  0  0  0  0  0  0  0
  -31.8165    7.3040   20.4263 H   0  0  0  0  0  0  0  0  0  0  0  0
  -32.0744    6.0835   21.7313 H   0  0  0  0  0  0  0  0  0  0  0  0
  3  4  1  0
  2  4  1  0
  3  5  2  0
  1  7  2  0
  2  9  2  0
  8  9  1  0
  2 10  1  0
  1 11  1  0
 11 12  2  0
  8 13  1  0
  7 13  1  0
 10 14  1  0
  8 14  2  0
 13 15  2  0
 12 15  1  0
  7 16  1  0
  5 18  1  0
 17 18  2  0
 10 18  1  0
  3 19  1  0
 19 20  2  0
 20 21  1  0
 21 22  2  0
 22 23  1  0
 23 24  2  0
 19 24  1  0
 22 25  1  0
 25 26  1  0
 26 27  1  0
 27 28  1  0
 28 29  1  0
 29 30  1  0
 25 30  1  0
  9 31  1  0
  6 31  2  0
 32 33  1  0
 33 34  1  0
 33 35  1  0
 35 36  1  0
 34 37  1  0
 32 37  1  0
 31 37  1  0
  4 38  1  0
  5 39  1  0
 11 40  1  0
 12 41  1  0
 16 42  1  6
 16 43  1  0
 16 44  1  0
 20 45  1  0
 21 46  1  0
 23 47  1  0
 24 48  1  0
 25 49  1  1
 26 50  1  6
 26 51  1  0
 27 52  1  1
 27 53  1  0
 28 54  1  6
 28 55  1  0
 29 56  1  1
 29 57  1  0
 30 58  1  6
 30 59  1  0
 32 60  1  6
 32 61  1  0
 33 62  1  6
 34 63  1  1
 34 64  1  0
 35 65  1  6
 35 66  1  0
M  END
