7CUO_PHB_A_304
     RDKit          3D

 16 16  0  0  0  0  0  0  0  0999 V2000
   17.3372    1.8945   73.5852 C   0  0  0  0  0  0  0  0  0  0  0  0
   16.8128    2.6961   72.7653 O   0  0  0  0  0  0  0  0  0  0  0  0
   17.9100    0.7157   73.1144 O   0  0  0  0  0  0  0  0  0  0  0  0
   17.3449    2.2012   75.0326 C   0  0  0  0  0  0  0  0  0  0  0  0
   16.7686    3.3897   75.5180 C   0  0  0  0  0  0  0  0  0  0  0  0
   16.7791    3.6739   76.8870 C   0  0  0  0  0  0  0  0  0  0  0  0
   17.3647    2.7759   77.7883 C   0  0  0  0  0  0  0  0  0  0  0  0
   17.9390    1.5933   77.3136 C   0  0  0  0  0  0  0  0  0  0  0  0
   17.9305    1.3055   75.9452 C   0  0  0  0  0  0  0  0  0  0  0  0
   17.3808    3.0488   79.1543 O   0  0  0  0  0  0  0  0  0  0  0  0
   17.9103    0.4961   72.1255 H   0  0  0  0  0  0  0  0  0  0  0  0
   16.3100    4.0996   74.8409 H   0  0  0  0  0  0  0  0  0  0  0  0
   16.3320    4.5922   77.2458 H   0  0  0  0  0  0  0  0  0  0  0  0
   18.3928    0.8958   78.0061 H   0  0  0  0  0  0  0  0  0  0  0  0
   18.3821    0.3827   75.6034 H   0  0  0  0  0  0  0  0  0  0  0  0
   16.9728    3.8972   79.5295 H   0  0  0  0  0  0  0  0  0  0  0  0
  1  2  2  0
  1  3  1  0
  1  4  1  0
  4  5  2  0
  5  6  1  0
  6  7  2  0
  7  8  1  0
  4  9  1  0
  8  9  2  0
  7 10  1  0
  3 11  1  0
  5 12  1  0
  6 13  1  0
  8 14  1  0
  9 15  1  0
 10 16  1  0
M  END
