6T88_MWQ_A_608
     RDKit          3D

 10 10  0  0  0  0  0  0  0  0999 V2000
  -23.5113  -64.7556    0.2306 O   0  0  0  0  0  0  0  0  0  0  0  0
  -22.3296  -65.1941   -0.0039 C   0  0  0  0  0  0  0  0  0  0  0  0
  -21.5702  -65.7747    1.0064 O   0  0  0  0  0  0  0  0  0  0  0  0
  -21.8247  -65.0463   -1.4005 C   0  0  0  0  0  0  0  0  0  0  0  0
  -22.1590  -63.6110   -1.7849 C   0  0  0  0  0  0  0  0  0  0  0  0
  -21.6725  -63.2973   -3.1253 C   0  0  0  0  0  0  0  0  0  0  0  0
  -21.9157  -62.1813   -3.8968 C   0  0  0  0  0  0  0  0  0  0  0  0
  -21.2592  -62.3265   -5.0654 N   0  0  0  0  0  0  0  0  0  0  0  0
  -20.6117  -63.5051   -5.0422 C   0  0  0  0  0  0  0  0  0  0  0  0
  -20.8572  -64.1181   -3.8487 N   0  0  0  0  0  0  0  0  0  0  0  0
  1  2  2  0
  2  3  1  0
  2  4  1  0
  4  5  1  0
  5  6  1  0
  6  7  2  0
  7  8  1  0
  8  9  2  0
  9 10  1  0
  6 10  1  0
M  END
$$$$
