7VJT_7IJ_A_1801
     RDKit          3D

 27 31  0  0  0  0  0  0  0  0999 V2000
  -13.4473  -20.4146  151.4690 C   0  0  0  0  0  0  0  0  0  0  0  0
  -12.3457  -19.8973  152.1208 C   0  0  0  0  0  0  0  0  0  0  0  0
  -11.4375  -22.1429  152.2999 C   0  0  0  0  0  0  0  0  0  0  0  0
  -17.6780  -22.5903  148.9545 C   0  0  0  0  0  0  0  0  0  0  0  0
  -18.2749  -23.7396  148.4873 C   0  0  0  0  0  0  0  0  0  0  0  0
  -13.6438  -24.4881  150.8181 C   0  0  0  0  0  0  0  0  0  0  0  0
  -15.8471  -26.4432  149.3425 C   0  0  0  0  0  0  0  0  0  0  0  0
  -11.3573  -20.7846  152.5243 C   0  0  0  0  0  0  0  0  0  0  0  0
  -14.6532  -23.6845  150.3889 C   0  0  0  0  0  0  0  0  0  0  0  0
  -16.4570  -22.7300  149.5703 C   0  0  0  0  0  0  0  0  0  0  0  0
  -14.6198  -22.3014  150.5945 C   0  0  0  0  0  0  0  0  0  0  0  0
  -16.3942  -25.0752  149.2780 C   0  0  0  0  0  0  0  0  0  0  0  0
  -17.6404  -24.9465  148.6503 C   0  0  0  0  0  0  0  0  0  0  0  0
  -15.1283  -26.8727  148.1930 N   0  0  0  0  0  0  0  0  0  0  0  0
  -12.5523  -22.6145  151.6473 C   0  0  0  0  0  0  0  0  0  0  0  0
  -13.9119  -27.5562  148.3892 C   0  0  0  0  0  0  0  0  0  0  0  0
  -13.9079  -29.0170  148.0450 C   0  0  0  0  0  0  0  0  0  0  0  0
  -14.2727  -29.1588  146.5863 C   0  0  0  0  0  0  0  0  0  0  0  0
  -15.0200  -27.9982  146.0218 C   0  0  0  0  0  0  0  0  0  0  0  0
  -15.8399  -27.2342  147.0384 C   0  0  0  0  0  0  0  0  0  0  0  0
  -15.8202  -23.9417  149.7349 C   0  0  0  0  0  0  0  0  0  0  0  0
  -13.5409  -21.7564  151.2395 C   0  0  0  0  0  0  0  0  0  0  0  0
  -15.7092  -21.7699  150.0940 O   0  0  0  0  0  0  0  0  0  0  0  0
  -12.6287  -23.8974  151.4351 O   0  0  0  0  0  0  0  0  0  0  0  0
  -13.5470  -25.7155  150.7119 O   0  0  0  0  0  0  0  0  0  0  0  0
  -18.3065  -26.0736  148.1509 O   0  0  0  0  0  0  0  0  0  0  0  0
  -10.2277  -20.3171  153.1839 O   0  0  0  0  0  0  0  0  0  0  0  0
  1  2  2  0
  4  5  1  0
  3  8  2  0
  2  8  1  0
  6  9  1  0
  4 10  2  0
  9 11  2  0
  7 12  1  0
 12 13  1  0
  5 13  2  0
  7 14  1  6
  3 15  1  0
 16 14  1  1
 17 16  1  1
 18 17  1  6
 18 19  1  0
 20 14  1  6
 19 20  1  6
  9 21  1  0
 10 21  1  0
 12 21  2  0
 15 22  2  0
  1 22  1  0
 11 22  1  0
 11 23  1  0
 10 23  1  0
 15 24  1  0
  6 24  1  0
  6 25  2  0
 13 26  1  0
  8 27  1  0
M  END
$$$$
