1V0P_PVB_A_1287
     RDKit          3D

 30 32  0  0  0  0  0  0  0  0999 V2000
   25.1190   -1.2537   35.0773 N   0  0  0  0  0  0  0  0  0  0  0  0
   22.4190    1.6362   38.4282 C   0  0  1  0  0  0  0  0  0  0  0  0
   23.2322    0.4522   38.1990 N   0  0  0  0  0  0  0  0  0  0  0  0
   23.8056    0.0239   37.0604 C   0  0  0  0  0  0  0  0  0  0  0  0
   23.7937    0.5458   35.8072 N   0  0  0  0  0  0  0  0  0  0  0  0
   24.4597   -0.1127   34.8262 C   0  0  0  0  0  0  0  0  0  0  0  0
   25.1757   -1.8378   36.3129 C   0  0  0  0  0  0  0  0  0  0  0  0
   24.4975   -1.1670   37.3075 C   0  0  0  0  0  0  0  0  0  0  0  0
   24.3070   -1.4066   38.6019 N   0  0  0  0  0  0  0  0  0  0  0  0
   23.5505   -0.4480   39.1575 C   0  0  0  0  0  0  0  0  0  0  0  0
   25.8695   -3.0524   36.4966 N   0  0  0  0  0  0  0  0  0  0  0  0
   26.6951   -3.7090   35.5859 C   0  0  0  0  0  0  0  0  0  0  0  0
   27.8167   -4.3748   36.0867 C   0  0  0  0  0  0  0  0  0  0  0  0
   28.6685   -5.0669   35.2639 C   0  0  0  0  0  0  0  0  0  0  0  0
   28.4479   -5.1301   33.9093 C   0  0  0  0  0  0  0  0  0  0  0  0
   27.3519   -4.4853   33.3821 C   0  0  0  0  0  0  0  0  0  0  0  0
   27.0211   -4.5342   31.6596 Cl  0  0  0  0  0  0  0  0  0  0  0  0
   26.5041   -3.7932   34.2270 C   0  0  0  0  0  0  0  0  0  0  0  0
   29.3325   -5.8543   33.0042 C   0  0  0  0  0  0  0  0  0  0  0  0
   30.4475   -6.5254   33.5134 O   0  0  0  0  0  0  0  0  0  0  0  0
   29.0787   -5.8645   31.7826 O   0  0  0  0  0  0  0  0  0  0  0  0
   24.4916    0.3687   33.4828 N   0  0  0  0  0  0  0  0  0  0  0  0
   25.1549   -0.4136   32.4395 C   0  0  2  0  0  0  0  0  0  0  0  0
   26.3780    0.3287   31.9997 C   0  0  2  0  0  0  0  0  0  0  0  0
   26.0597    1.6059   31.2507 C   0  0  0  0  0  0  0  0  0  0  0  0
   27.1363   -0.5593   31.0358 C   0  0  0  0  0  0  0  0  0  0  0  0
   24.1309   -0.5341   31.3199 C   0  0  0  0  0  0  0  0  0  0  0  0
   23.0853   -1.3768   31.6155 O   0  0  0  0  0  0  0  0  0  0  0  0
   21.1161    1.2736   39.1425 C   0  0  0  0  0  0  0  0  0  0  0  0
   23.1445    2.6271   39.3304 C   0  0  0  0  0  0  0  0  0  0  0  0
  2  3  1  0
  3  4  1  0
  4  5  2  0
  1  6  2  0
  5  6  1  0
  1  7  1  0
  4  8  1  0
  7  8  2  0
  8  9  1  0
  3 10  1  0
  9 10  2  0
  7 11  1  0
 11 12  1  0
 12 13  2  0
 13 14  1  0
 14 15  2  0
 15 16  1  0
 16 17  1  0
 12 18  1  0
 16 18  2  0
 15 19  1  0
 19 20  1  0
 19 21  2  0
  6 22  1  0
 22 23  1  0
 23 24  1  0
 24 25  1  6
 24 26  1  0
 23 27  1  6
 27 28  1  0
  2 29  1  1
  2 30  1  0
M  END
$$$$
