1V0P_PVB_A_1287
     RDKit          3D

 30 32  0  0  0  0  0  0  0  0999 V2000
   24.5424   -0.4029   34.8326 N   0  0  0  0  0  0  0  0  0  0  0  0
   22.5149    0.5293   39.5114 C   0  0  1  0  0  0  0  0  0  0  0  0
   22.6026    0.9068   38.1094 N   0  0  0  0  0  0  0  0  0  0  0  0
   23.3154    0.3386   37.1206 C   0  0  0  0  0  0  0  0  0  0  0  0
   24.1567   -0.7268   37.1291 N   0  0  0  0  0  0  0  0  0  0  0  0
   24.7626   -1.0815   35.9688 C   0  0  0  0  0  0  0  0  0  0  0  0
   23.7090    0.6783   34.7475 C   0  0  0  0  0  0  0  0  0  0  0  0
   23.0953    1.0369   35.9281 C   0  0  0  0  0  0  0  0  0  0  0  0
   22.2482    2.0085   36.2565 N   0  0  0  0  0  0  0  0  0  0  0  0
   21.9385    1.9500   37.5605 C   0  0  0  0  0  0  0  0  0  0  0  0
   23.5447    1.3575   33.5219 N   0  0  0  0  0  0  0  0  0  0  0  0
   24.1071    1.0376   32.2876 C   0  0  0  0  0  0  0  0  0  0  0  0
   23.2387    0.7584   31.2293 C   0  0  0  0  0  0  0  0  0  0  0  0
   23.7070    0.4587   29.9754 C   0  0  0  0  0  0  0  0  0  0  0  0
   25.0552    0.4219   29.7138 C   0  0  0  0  0  0  0  0  0  0  0  0
   25.9393    0.6919   30.7338 C   0  0  0  0  0  0  0  0  0  0  0  0
   27.6715    0.6604   30.4556 Cl  0  0  0  0  0  0  0  0  0  0  0  0
   25.4489    0.9926   31.9910 C   0  0  0  0  0  0  0  0  0  0  0  0
   25.5892    0.1054   28.3943 C   0  0  0  0  0  0  0  0  0  0  0  0
   24.7145   -0.1294   27.3301 O   0  0  0  0  0  0  0  0  0  0  0  0
   26.8253    0.0495   28.2346 O   0  0  0  0  0  0  0  0  0  0  0  0
   25.6633   -2.1865   35.8960 N   0  0  0  0  0  0  0  0  0  0  0  0
   26.4717   -2.3953   34.6946 C   0  0  2  0  0  0  0  0  0  0  0  0
   25.6307   -3.1017   33.6776 C   0  0  2  0  0  0  0  0  0  0  0  0
   25.3874   -4.5575   34.0167 C   0  0  0  0  0  0  0  0  0  0  0  0
   26.3823   -3.0843   32.3634 C   0  0  0  0  0  0  0  0  0  0  0  0
   27.6481   -3.2474   35.1489 C   0  0  0  0  0  0  0  0  0  0  0  0
   28.5065   -2.5947   36.0022 O   0  0  0  0  0  0  0  0  0  0  0  0
   22.0921   -0.9333   39.6574 C   0  0  0  0  0  0  0  0  0  0  0  0
   23.8713    0.6567   40.1940 C   0  0  0  0  0  0  0  0  0  0  0  0
  2  3  1  0
  3  4  1  0
  4  5  2  0
  1  6  2  0
  5  6  1  0
  1  7  1  0
  4  8  1  0
  7  8  2  0
  8  9  1  0
  3 10  1  0
  9 10  2  0
  7 11  1  0
 11 12  1  0
 12 13  2  0
 13 14  1  0
 14 15  2  0
 15 16  1  0
 16 17  1  0
 12 18  1  0
 16 18  2  0
 15 19  1  0
 19 20  1  0
 19 21  2  0
  6 22  1  0
 22 23  1  0
 23 24  1  0
 24 25  1  1
 24 26  1  0
 23 27  1  1
 27 28  1  0
  2 29  1  6
  2 30  1  0
M  END
$$$$
