1V0P_PVB_A_1287
     RDKit          3D

 30 32  0  0  0  0  0  0  0  0999 V2000
   25.2263   -1.0365   35.2634 N   0  0  0  0  0  0  0  0  0  0  0  0
   22.4087    1.7186   38.6311 C   0  0  1  0  0  0  0  0  0  0  0  0
   23.2630    0.5657   38.3930 N   0  0  0  0  0  0  0  0  0  0  0  0
   23.8578    0.1712   37.2531 C   0  0  0  0  0  0  0  0  0  0  0  0
   23.8361    0.7079   36.0063 N   0  0  0  0  0  0  0  0  0  0  0  0
   24.5303    0.0846   35.0219 C   0  0  0  0  0  0  0  0  0  0  0  0
   25.2949   -1.6337   36.4922 C   0  0  0  0  0  0  0  0  0  0  0  0
   24.5882   -0.9986   37.4903 C   0  0  0  0  0  0  0  0  0  0  0  0
   24.3977   -1.2605   38.7804 N   0  0  0  0  0  0  0  0  0  0  0  0
   23.6057   -0.3350   39.3426 C   0  0  0  0  0  0  0  0  0  0  0  0
   26.0284   -2.8262   36.6657 N   0  0  0  0  0  0  0  0  0  0  0  0
   26.8460   -3.4673   35.7369 C   0  0  0  0  0  0  0  0  0  0  0  0
   27.9699   -4.1444   36.2169 C   0  0  0  0  0  0  0  0  0  0  0  0
   28.8142   -4.8226   35.3751 C   0  0  0  0  0  0  0  0  0  0  0  0
   28.5835   -4.8603   34.0212 C   0  0  0  0  0  0  0  0  0  0  0  0
   27.4849   -4.2037   33.5142 C   0  0  0  0  0  0  0  0  0  0  0  0
   27.1414   -4.2200   31.7936 Cl  0  0  0  0  0  0  0  0  0  0  0  0
   26.6448   -3.5259   34.3781 C   0  0  0  0  0  0  0  0  0  0  0  0
   29.4600   -5.5692   33.0963 C   0  0  0  0  0  0  0  0  0  0  0  0
   30.6495   -6.1345   33.5633 O   0  0  0  0  0  0  0  0  0  0  0  0
   29.1325   -5.6612   31.8959 O   0  0  0  0  0  0  0  0  0  0  0  0
   24.5543    0.5834   33.6847 N   0  0  0  0  0  0  0  0  0  0  0  0
   25.3599   -0.0897   32.6657 C   0  0  2  0  0  0  0  0  0  0  0  0
   25.6306    0.8830   31.5606 C   0  0  2  0  0  0  0  0  0  0  0  0
   26.5238    0.3161   30.4768 C   0  0  0  0  0  0  0  0  0  0  0  0
   26.3688    2.0639   32.1545 C   0  0  0  0  0  0  0  0  0  0  0  0
   24.5097   -1.2611   32.1950 C   0  0  0  0  0  0  0  0  0  0  0  0
   23.3776   -0.8832   31.5120 O   0  0  0  0  0  0  0  0  0  0  0  0
   23.1187    3.0147   38.2370 C   0  0  0  0  0  0  0  0  0  0  0  0
   21.1455    1.6431   37.7822 C   0  0  0  0  0  0  0  0  0  0  0  0
  2  3  1  0
  3  4  1  0
  4  5  2  0
  1  6  2  0
  5  6  1  0
  1  7  1  0
  4  8  1  0
  7  8  2  0
  8  9  1  0
  3 10  1  0
  9 10  2  0
  7 11  1  0
 11 12  1  0
 12 13  2  0
 13 14  1  0
 14 15  2  0
 15 16  1  0
 16 17  1  0
 12 18  1  0
 16 18  2  0
 15 19  1  0
 19 20  1  0
 19 21  2  0
  6 22  1  0
 22 23  1  0
 23 24  1  0
 24 25  1  6
 24 26  1  0
 23 27  1  6
 27 28  1  0
  2 29  1  6
  2 30  1  0
M  END
$$$$
