1V0P_PVB_A_1287
     RDKit          3D

 30 32  0  0  0  0  0  0  0  0999 V2000
   25.1975   -1.1370   35.0831 N   0  0  0  0  0  0  0  0  0  0  0  0
   22.2055    1.6252   38.2908 C   0  0  1  0  0  0  0  0  0  0  0  0
   23.0530    0.4595   38.0945 N   0  0  0  0  0  0  0  0  0  0  0  0
   23.7175    0.0694   36.9922 C   0  0  0  0  0  0  0  0  0  0  0  0
   23.7915    0.6235   35.7551 N   0  0  0  0  0  0  0  0  0  0  0  0
   24.5402    0.0006   34.8113 C   0  0  0  0  0  0  0  0  0  0  0  0
   25.1705   -1.7521   36.3046 C   0  0  0  0  0  0  0  0  0  0  0  0
   24.4084   -1.1173   37.2613 C   0  0  0  0  0  0  0  0  0  0  0  0
   24.1248   -1.3933   38.5312 N   0  0  0  0  0  0  0  0  0  0  0  0
   23.3130   -0.4606   39.0517 C   0  0  0  0  0  0  0  0  0  0  0  0
   25.8684   -2.9608   36.5100 N   0  0  0  0  0  0  0  0  0  0  0  0
   26.7889   -3.5693   35.6588 C   0  0  0  0  0  0  0  0  0  0  0  0
   27.9197   -4.1543   36.2342 C   0  0  0  0  0  0  0  0  0  0  0  0
   28.8633   -4.7957   35.4727 C   0  0  0  0  0  0  0  0  0  0  0  0
   28.7294   -4.8858   34.1083 C   0  0  0  0  0  0  0  0  0  0  0  0
   27.6271   -4.3203   33.5084 C   0  0  0  0  0  0  0  0  0  0  0  0
   27.4046   -4.4069   31.7700 Cl  0  0  0  0  0  0  0  0  0  0  0  0
   26.6861   -3.6785   34.2921 C   0  0  0  0  0  0  0  0  0  0  0  0
   29.7127   -5.5578   33.2671 C   0  0  0  0  0  0  0  0  0  0  0  0
   30.8628   -6.1027   33.8443 O   0  0  0  0  0  0  0  0  0  0  0  0
   29.5110   -5.6371   32.0384 O   0  0  0  0  0  0  0  0  0  0  0  0
   24.6653    0.5171   33.4865 N   0  0  0  0  0  0  0  0  0  0  0  0
   25.5909   -0.1069   32.5409 C   0  0  2  0  0  0  0  0  0  0  0  0
   26.1754    0.9659   31.6760 C   0  0  2  0  0  0  0  0  0  0  0  0
   25.1937    1.5080   30.6581 C   0  0  0  0  0  0  0  0  0  0  0  0
   27.3180    0.3564   30.8916 C   0  0  0  0  0  0  0  0  0  0  0  0
   24.7430   -1.0835   31.7386 C   0  0  0  0  0  0  0  0  0  0  0  0
   23.4154   -0.7325   31.6659 O   0  0  0  0  0  0  0  0  0  0  0  0
   20.7990    1.2105   38.7255 C   0  0  0  0  0  0  0  0  0  0  0  0
   22.7546    2.5156   39.3988 C   0  0  0  0  0  0  0  0  0  0  0  0
  2  3  1  0
  3  4  1  0
  4  5  2  0
  1  6  2  0
  5  6  1  0
  1  7  1  0
  4  8  1  0
  7  8  2  0
  8  9  1  0
  3 10  1  0
  9 10  2  0
  7 11  1  0
 11 12  1  0
 12 13  2  0
 13 14  1  0
 14 15  2  0
 15 16  1  0
 16 17  1  0
 12 18  1  0
 16 18  2  0
 15 19  1  0
 19 20  1  0
 19 21  2  0
  6 22  1  0
 22 23  1  0
 23 24  1  0
 24 25  1  6
 24 26  1  0
 23 27  1  6
 27 28  1  0
  2 29  1  1
  2 30  1  0
M  END
$$$$
