1V0P_PVB_A_1287
     RDKit          3D

 30 32  0  0  0  0  0  0  0  0999 V2000
   24.6877   -0.4985   35.2618 N   0  0  0  0  0  0  0  0  0  0  0  0
   22.5106    0.7562   39.7958 C   0  0  1  0  0  0  0  0  0  0  0  0
   22.6270    1.0205   38.3702 N   0  0  0  0  0  0  0  0  0  0  0  0
   23.3806    0.3933   37.4496 C   0  0  0  0  0  0  0  0  0  0  0  0
   24.2478   -0.6446   37.5667 N   0  0  0  0  0  0  0  0  0  0  0  0
   24.8938   -1.0760   36.4550 C   0  0  0  0  0  0  0  0  0  0  0  0
   23.8301    0.5492   35.0672 C   0  0  0  0  0  0  0  0  0  0  0  0
   23.1756    0.9859   36.1986 C   0  0  0  0  0  0  0  0  0  0  0  0
   22.2958    1.9576   36.4247 N   0  0  0  0  0  0  0  0  0  0  0  0
   21.9523    1.9971   37.7210 C   0  0  0  0  0  0  0  0  0  0  0  0
   23.6823    1.1216   33.7863 N   0  0  0  0  0  0  0  0  0  0  0  0
   24.2441    0.6860   32.5877 C   0  0  0  0  0  0  0  0  0  0  0  0
   23.4393   -0.0636   31.7260 C   0  0  0  0  0  0  0  0  0  0  0  0
   23.9042   -0.5110   30.5156 C   0  0  0  0  0  0  0  0  0  0  0  0
   25.1862   -0.2364   30.1048 C   0  0  0  0  0  0  0  0  0  0  0  0
   26.0066    0.4999   30.9293 C   0  0  0  0  0  0  0  0  0  0  0  0
   27.6521    0.8811   30.4544 Cl  0  0  0  0  0  0  0  0  0  0  0  0
   25.5204    0.9428   32.1454 C   0  0  0  0  0  0  0  0  0  0  0  0
   25.7151   -0.6969   28.8263 C   0  0  0  0  0  0  0  0  0  0  0  0
   24.8903   -1.4068   27.9497 O   0  0  0  0  0  0  0  0  0  0  0  0
   26.9019   -0.4481   28.5327 O   0  0  0  0  0  0  0  0  0  0  0  0
   25.8235   -2.1584   36.4959 N   0  0  0  0  0  0  0  0  0  0  0  0
   26.6079   -2.4962   35.3080 C   0  0  2  0  0  0  0  0  0  0  0  0
   25.7461   -3.3035   34.3882 C   0  0  2  0  0  0  0  0  0  0  0  0
   25.4862   -4.7060   34.8972 C   0  0  0  0  0  0  0  0  0  0  0  0
   26.4834   -3.4510   33.0741 C   0  0  0  0  0  0  0  0  0  0  0  0
   27.7919   -3.2993   35.8271 C   0  0  0  0  0  0  0  0  0  0  0  0
   27.8287   -3.4067   37.1975 O   0  0  0  0  0  0  0  0  0  0  0  0
   22.1655   -0.7115   40.0524 C   0  0  0  0  0  0  0  0  0  0  0  0
   23.8325    1.0194   40.5066 C   0  0  0  0  0  0  0  0  0  0  0  0
  2  3  1  0
  3  4  1  0
  4  5  2  0
  1  6  2  0
  5  6  1  0
  1  7  1  0
  4  8  1  0
  7  8  2  0
  8  9  1  0
  3 10  1  0
  9 10  2  0
  7 11  1  0
 11 12  1  0
 12 13  2  0
 13 14  1  0
 14 15  2  0
 15 16  1  0
 16 17  1  0
 12 18  1  0
 16 18  2  0
 15 19  1  0
 19 20  1  0
 19 21  2  0
  6 22  1  0
 22 23  1  0
 23 24  1  0
 24 25  1  1
 24 26  1  0
 23 27  1  1
 27 28  1  0
  2 29  1  6
  2 30  1  0
M  END
$$$$
