1V0P_PVB_A_1287
     RDKit          3D

 30 32  0  0  0  0  0  0  0  0999 V2000
   31.5313   27.4319   -3.1314 N   0  0  0  0  0  0  0  0  0  0  0  0
   27.4066   30.3485   -4.2940 C   0  0  1  0  0  0  0  0  0  0  0  0
   28.0483   29.4405   -3.3562 N   0  0  0  0  0  0  0  0  0  0  0  0
   29.2538   28.8497   -3.4370 C   0  0  0  0  0  0  0  0  0  0  0  0
   30.2118   28.9100   -4.3970 N   0  0  0  0  0  0  0  0  0  0  0  0
   31.3476   28.1896   -4.2232 C   0  0  0  0  0  0  0  0  0  0  0  0
   30.6125   27.3227   -2.1239 C   0  0  0  0  0  0  0  0  0  0  0  0
   29.4592   28.0552   -2.3035 C   0  0  0  0  0  0  0  0  0  0  0  0
   28.3526   28.2046   -1.5807 N   0  0  0  0  0  0  0  0  0  0  0  0
   27.4917   29.0316   -2.1929 C   0  0  0  0  0  0  0  0  0  0  0  0
   30.8652   26.4869   -1.0158 N   0  0  0  0  0  0  0  0  0  0  0  0
   31.9794   25.6802   -0.7926 C   0  0  0  0  0  0  0  0  0  0  0  0
   32.3480   25.4314    0.5319 C   0  0  0  0  0  0  0  0  0  0  0  0
   33.4163   24.6287    0.8419 C   0  0  0  0  0  0  0  0  0  0  0  0
   34.1668   24.0373   -0.1453 C   0  0  0  0  0  0  0  0  0  0  0  0
   33.8313   24.2611   -1.4615 C   0  0  0  0  0  0  0  0  0  0  0  0
   34.7541   23.5299   -2.7625 Cl  0  0  0  0  0  0  0  0  0  0  0  0
   32.7510   25.0725   -1.7547 C   0  0  0  0  0  0  0  0  0  0  0  0
   35.3097   23.1800    0.1465 C   0  0  0  0  0  0  0  0  0  0  0  0
   35.7588   23.0470    1.4631 O   0  0  0  0  0  0  0  0  0  0  0  0
   35.8716   22.5745   -0.7886 O   0  0  0  0  0  0  0  0  0  0  0  0
   32.3996   28.1967   -5.1880 N   0  0  0  0  0  0  0  0  0  0  0  0
   33.6059   27.4001   -4.9628 C   0  0  2  0  0  0  0  0  0  0  0  0
   34.7974   28.2504   -5.2761 C   0  0  2  0  0  0  0  0  0  0  0  0
   34.9039   29.4727   -4.3883 C   0  0  0  0  0  0  0  0  0  0  0  0
   34.6429   28.7588   -6.6938 C   0  0  0  0  0  0  0  0  0  0  0  0
   33.4864   26.2181   -5.9142 C   0  0  0  0  0  0  0  0  0  0  0  0
   32.5597   25.2821   -5.5192 O   0  0  0  0  0  0  0  0  0  0  0  0
   26.7132   29.5740   -5.4158 C   0  0  0  0  0  0  0  0  0  0  0  0
   26.3241   31.1680   -3.6022 C   0  0  0  0  0  0  0  0  0  0  0  0
  2  3  1  0
  3  4  1  0
  4  5  2  0
  1  6  2  0
  5  6  1  0
  1  7  1  0
  4  8  1  0
  7  8  2  0
  8  9  1  0
  3 10  1  0
  9 10  2  0
  7 11  1  0
 11 12  1  0
 12 13  2  0
 13 14  1  0
 14 15  2  0
 15 16  1  0
 16 17  1  0
 12 18  1  0
 16 18  2  0
 15 19  1  0
 19 20  1  0
 19 21  2  0
  6 22  1  0
 22 23  1  0
 23 24  1  0
 24 25  1  1
 24 26  1  0
 23 27  1  6
 27 28  1  0
  2 29  1  6
  2 30  1  0
M  END
$$$$
