1V0P_PVB_A_1287
     RDKit          3D

 30 32  0  0  0  0  0  0  0  0999 V2000
   25.0353   -1.2341   35.2835 N   0  0  0  0  0  0  0  0  0  0  0  0
   22.1170    1.2943   38.7420 C   0  0  1  0  0  0  0  0  0  0  0  0
   22.9879    0.1649   38.4563 N   0  0  0  0  0  0  0  0  0  0  0  0
   23.6114   -0.1569   37.3090 C   0  0  0  0  0  0  0  0  0  0  0  0
   23.6116    0.4516   36.0954 N   0  0  0  0  0  0  0  0  0  0  0  0
   24.3334   -0.1069   35.0922 C   0  0  0  0  0  0  0  0  0  0  0  0
   25.0830   -1.9015   36.4766 C   0  0  0  0  0  0  0  0  0  0  0  0
   24.3482   -1.3321   37.4939 C   0  0  0  0  0  0  0  0  0  0  0  0
   24.1321   -1.6708   38.7620 N   0  0  0  0  0  0  0  0  0  0  0  0
   23.3187   -0.7868   39.3592 C   0  0  0  0  0  0  0  0  0  0  0  0
   25.8245   -3.0957   36.5967 N   0  0  0  0  0  0  0  0  0  0  0  0
   26.6775   -3.6681   35.6551 C   0  0  0  0  0  0  0  0  0  0  0  0
   27.8032   -4.3492   36.1254 C   0  0  0  0  0  0  0  0  0  0  0  0
   28.6815   -4.9630   35.2691 C   0  0  0  0  0  0  0  0  0  0  0  0
   28.4847   -4.9296   33.9099 C   0  0  0  0  0  0  0  0  0  0  0  0
   27.3855   -4.2671   33.4121 C   0  0  0  0  0  0  0  0  0  0  0  0
   27.0843   -4.1942   31.6850 Cl  0  0  0  0  0  0  0  0  0  0  0  0
   26.5107   -3.6548   34.2904 C   0  0  0  0  0  0  0  0  0  0  0  0
   29.3978   -5.5689   32.9698 C   0  0  0  0  0  0  0  0  0  0  0  0
   30.5825   -6.1449   33.4363 O   0  0  0  0  0  0  0  0  0  0  0  0
   29.1058   -5.5926   31.7570 O   0  0  0  0  0  0  0  0  0  0  0  0
   24.3816    0.4694   33.7872 N   0  0  0  0  0  0  0  0  0  0  0  0
   25.0913   -0.2180   32.7081 C   0  0  2  0  0  0  0  0  0  0  0  0
   26.1385    0.7059   32.1693 C   0  0  2  0  0  0  0  0  0  0  0  0
   25.5742    1.7746   31.2566 C   0  0  0  0  0  0  0  0  0  0  0  0
   27.0943   -0.1168   31.3314 C   0  0  0  0  0  0  0  0  0  0  0  0
   24.0255   -0.5354   31.6690 C   0  0  0  0  0  0  0  0  0  0  0  0
   23.0855   -1.4416   32.1003 O   0  0  0  0  0  0  0  0  0  0  0  0
   22.8297    2.6180   38.4608 C   0  0  0  0  0  0  0  0  0  0  0  0
   20.8840    1.2694   37.8469 C   0  0  0  0  0  0  0  0  0  0  0  0
  2  3  1  0
  3  4  1  0
  4  5  2  0
  1  6  2  0
  5  6  1  0
  1  7  1  0
  4  8  1  0
  7  8  2  0
  8  9  1  0
  3 10  1  0
  9 10  2  0
  7 11  1  0
 11 12  1  0
 12 13  2  0
 13 14  1  0
 14 15  2  0
 15 16  1  0
 16 17  1  0
 12 18  1  0
 16 18  2  0
 15 19  1  0
 19 20  1  0
 19 21  2  0
  6 22  1  0
 22 23  1  0
 23 24  1  0
 24 25  1  6
 24 26  1  0
 23 27  1  6
 27 28  1  0
  2 29  1  6
  2 30  1  0
M  END
$$$$
