
     RDKit          3D

 14 14  0  0  0  0  0  0  0  0999 V2000
   16.0387  -30.5573   -2.0011 C   0  0  0  0  0  0  0  0  0  0  0  0
   15.6824  -31.7867   -1.4344 C   0  0  0  0  0  0  0  0  0  0  0  0
   14.5532  -31.8898   -0.6187 C   0  0  0  0  0  0  0  0  0  0  0  0
   13.7598  -30.7673   -0.3585 C   0  0  0  0  0  0  0  0  0  0  0  0
   14.1309  -29.5334   -0.9035 C   0  0  0  0  0  0  0  0  0  0  0  0
   15.2597  -29.4292   -1.7193 C   0  0  0  0  0  0  0  0  0  0  0  0
   17.2696  -30.4387   -2.8661 C   0  0  0  0  0  0  0  0  0  0  0  0
   12.5682  -30.8714    0.5461 C   0  0  0  0  0  0  0  0  0  0  0  0
   18.3436  -32.1472    0.0957 C   0  0  0  0  0  0  0  0  0  0  0  0
   18.5929  -33.4773    0.7756 C   0  0  0  0  0  0  0  0  0  0  0  0
   18.8161  -31.0495   -2.2055 P   0  0  2  0  0  5  0  0  0  0  0  0
   18.4371  -32.3297   -1.3055 O   0  0  0  0  0  0  0  0  0  0  0  0
   19.2831  -29.9808   -1.0970 O   0  0  0  0  0  0  0  0  0  0  0  0
   19.9066  -31.3029   -3.1992 O   0  0  0  0  0  0  0  0  0  0  0  0
  1  2  4  0
  2  3  4  0
  3  4  4  0
  4  5  4  0
  1  6  4  0
  5  6  4  0
  1  7  1  0
  4  8  1  0
  9 10  1  0
  7 11  1  0
 11 12  1  0
  9 12  1  0
 11 13  1  1
 11 14  2  0
M  END
