6ZXQ_IMO_A_503
     RDKit          3D

 41 43  0  0  0  0  0  0  0  0999 V2000
  -15.8682   -6.4362   15.0404 P   0  0  2  0  0  5  0  0  0  0  0  0
  -16.6525   -5.3285   15.6327 O   0  0  0  0  0  0  0  0  0  0  0  0
  -16.9103   -3.4187   11.5622 C   0  0  0  0  0  0  0  0  0  0  0  0
  -21.0507   -4.4531   11.0309 C   0  0  1  0  0  0  0  0  0  0  0  0
  -20.7030   -3.2729   10.5144 C   0  0  1  0  0  0  0  0  0  0  0  0
  -21.7180   -3.0941    9.2716 C   0  0  1  0  0  0  0  0  0  0  0  0
  -21.7740   -4.3193    8.6568 C   0  0  1  0  0  0  0  0  0  0  0  0
  -20.7366   -4.4994    7.5150 C   0  0  0  0  0  0  0  0  0  0  0  0
  -16.4298   -7.7842   15.3887 O   0  0  0  0  0  0  0  0  0  0  0  0
  -14.4011   -6.3540   15.2508 O   0  0  0  0  0  0  0  0  0  0  0  0
  -18.8562   -2.6419    7.6696 P   0  0  2  0  0  5  0  0  0  0  0  0
  -19.5125   -2.1117    6.3809 O   0  0  0  0  0  0  0  0  0  0  0  0
  -19.2216   -1.7651    8.8642 O   0  0  0  0  0  0  0  0  0  0  0  0
  -17.3372   -2.7971    7.4633 O   0  0  0  0  0  0  0  0  0  0  0  0
  -19.4393   -4.1679    7.9513 O   0  0  0  0  0  0  0  0  0  0  0  0
  -21.3788   -5.3197    9.7486 O   0  0  0  0  0  0  0  0  0  0  0  0
  -20.0479   -5.2936   11.6215 N   0  0  0  0  0  4  0  0  0  0  0  0
  -18.7862   -4.7986   11.7350 C   0  0  0  0  0  0  0  0  0  0  0  0
  -18.2345   -3.6384   11.3233 N   0  0  0  0  0  0  0  0  0  0  0  0
  -16.1678   -4.3279   12.2329 N   0  0  0  0  0  0  0  0  0  0  0  0
  -16.7129   -5.4600   12.6493 C   0  0  0  0  0  0  0  0  0  0  0  0
  -15.9805   -6.4043   13.3753 O   0  0  0  0  0  0  0  0  0  0  0  0
  -18.0608   -5.7167   12.3883 C   0  0  0  0  0  0  0  0  0  0  0  0
  -18.8333   -6.7792   12.6914 N   0  0  0  0  0  0  0  0  0  0  0  0
  -20.0634   -6.4730   12.2329 C   0  0  0  0  0  0  0  0  0  0  0  0
  -20.9319   -2.2202   11.4915 O   0  0  0  0  0  0  0  0  0  0  0  0
  -23.0035   -2.7780    9.7757 O   0  0  0  0  0  0  0  0  0  0  0  0
  -16.5777   -5.3602   16.5993 H   0  0  0  0  0  0  0  0  0  0  0  0
  -16.4694   -2.5479   11.2271 H   0  0  0  0  0  0  0  0  0  0  0  0
  -21.7716   -4.2145   11.7847 H   0  0  0  0  0  0  0  0  0  0  0  0
  -19.6726   -3.2237   10.2299 H   0  0  0  0  0  0  0  0  0  0  0  0
  -21.4017   -2.3222    8.6015 H   0  0  0  0  0  0  0  0  0  0  0  0
  -22.7467   -4.4444    8.2288 H   0  0  0  0  0  0  0  0  0  0  0  0
  -21.0033   -3.8631    6.6971 H   0  0  0  0  0  0  0  0  0  0  0  0
  -20.7409   -5.5251    7.2107 H   0  0  0  0  0  0  0  0  0  0  0  0
  -16.4092   -7.9042   16.3511 H   0  0  0  0  0  0  0  0  0  0  0  0
  -19.1853   -1.2175    6.1958 H   0  0  0  0  0  0  0  0  0  0  0  0
  -18.8887   -0.8657    8.7190 H   0  0  0  0  0  0  0  0  0  0  0  0
  -20.8983   -7.0698   12.3413 H   0  0  0  0  0  0  0  0  0  0  0  0
  -21.8603   -2.2360   11.7723 H   0  0  0  0  0  0  0  0  0  0  0  0
  -23.2931   -3.4762   10.3837 H   0  0  0  0  0  0  0  0  0  0  0  0
  1  2  1  1
  4  5  1  0
  5  6  1  0
  6  7  1  0
  7  8  1  0
  1  9  1  0
  1 10  2  0
 11 12  1  6
 11 13  1  0
 11 14  2  0
  8 15  1  0
 11 15  1  0
  4 16  1  0
  7 16  1  0
  4 17  1  0
 17 18  4  0
  3 19  4  0
 18 19  4  0
  3 20  4  0
 20 21  4  0
  1 22  1  0
 21 22  1  0
 18 23  4  0
 21 23  4  0
 23 24  4  0
 17 25  4  0
 24 25  4  0
  5 26  1  0
  6 27  1  0
  2 28  1  0
  3 29  1  0
  4 30  1  1
  5 31  1  6
  6 32  1  6
  7 33  1  6
  8 34  1  0
  8 35  1  0
  9 36  1  0
 12 37  1  0
 13 38  1  0
 25 39  1  0
 26 40  1  0
 27 41  1  0
M  CHG  1  17   1
M  END
