1OQ5_CEL_A_701
     RDKit          3D

 26 28  0  0  0  0  0  0  0  0999 V2000
   15.1222    2.8023   16.6862 S   0  0  2  0  0  6  0  0  0  0  0  0
   15.9743    4.1325   15.9112 C   0  0  0  0  0  0  0  0  0  0  0  0
   15.3141    5.3370   15.7036 C   0  0  0  0  0  0  0  0  0  0  0  0
   15.9538    6.3865   15.1034 C   0  0  0  0  0  0  0  0  0  0  0  0
   17.2841    6.2618   14.6893 C   0  0  0  0  0  0  0  0  0  0  0  0
   17.9509    5.0725   14.8891 C   0  0  0  0  0  0  0  0  0  0  0  0
   17.2845    4.0131   15.5021 C   0  0  0  0  0  0  0  0  0  0  0  0
   17.8748    7.3990   14.0742 N   0  0  0  0  0  0  0  0  0  0  0  0
   17.9858    7.7009   12.7677 C   0  0  0  0  0  0  0  0  0  0  0  0
   17.4989    6.8830   11.6617 C   0  0  0  0  0  0  0  0  0  0  0  0
   18.0169    5.5842   11.6003 C   0  0  0  0  0  0  0  0  0  0  0  0
   17.6559    4.7069   10.6256 C   0  0  0  0  0  0  0  0  0  0  0  0
   16.7534    5.1175    9.6753 C   0  0  0  0  0  0  0  0  0  0  0  0
   16.3784    4.1367    8.6232 C   0  0  0  0  0  0  0  0  0  0  0  0
   16.2309    6.4005    9.7217 C   0  0  0  0  0  0  0  0  0  0  0  0
   16.6065    7.2956   10.7257 C   0  0  0  0  0  0  0  0  0  0  0  0
   18.6424    8.9252   12.6210 C   0  0  0  0  0  0  0  0  0  0  0  0
   18.9106    9.3248   13.9148 C   0  0  0  0  0  0  0  0  0  0  0  0
   19.6138   10.5974   14.2816 C   0  0  1  0  0  0  0  0  0  0  0  0
   18.7176   11.6567   14.3124 F   0  0  0  0  0  0  0  0  0  0  0  0
   20.1220   10.4250   15.5459 F   0  0  0  0  0  0  0  0  0  0  0  0
   20.5681   10.9218   13.3618 F   0  0  0  0  0  0  0  0  0  0  0  0
   18.4327    8.3782   14.7732 N   0  0  0  0  0  0  0  0  0  0  0  0
   15.5930    1.3238   15.9286 N   0  0  0  0  0  0  0  0  0  0  0  0
   13.6351    2.9669   16.5793 O   0  0  0  0  0  0  0  0  0  0  0  0
   15.5942    2.7505   18.1107 O   0  0  0  0  0  0  0  0  0  0  0  0
  1  2  1  0
  2  3  2  0
  3  4  1  0
  4  5  2  0
  5  6  1  0
  2  7  1  0
  6  7  2  0
  5  8  1  0
  8  9  1  0
  9 10  1  0
 10 11  2  0
 11 12  1  0
 12 13  2  0
 14 13  1  6
 13 15  1  0
 10 16  1  0
 15 16  2  0
  9 17  2  0
 17 18  1  0
 18 19  1  0
 19 20  1  1
 19 21  1  0
 19 22  1  0
  8 23  1  0
 18 23  2  0
  1 24  1  6
  1 25  2  0
  1 26  2  0
M  END
$$$$
