
     RDKit          3D

 15 15  0  0  0  0  0  0  0  0999 V2000
   58.5902    8.8756  117.2035 O   0  0  0  0  0  0  0  0  0  0  0  0
   58.8275    7.6314  116.5642 C   0  0  2  0  0  0  0  0  0  0  0  0
   59.9103    6.9702  117.2177 O   0  0  0  0  0  0  0  0  0  0  0  0
   59.1437    7.7867  115.0603 C   0  0  2  0  0  0  0  0  0  0  0  0
   59.4946    6.5010  114.4269 N   0  0  0  0  0  0  0  0  0  0  0  0
   60.2968    8.7836  114.8728 C   0  0  1  0  0  0  0  0  0  0  0  0
   60.4665    9.0828  113.4745 O   0  0  0  0  0  0  0  0  0  0  0  0
   60.0177   10.0935  115.6128 C   0  0  1  0  0  0  0  0  0  0  0  0
   58.9382   10.7748  114.9483 O   0  0  0  0  0  0  0  0  0  0  0  0
   59.6691    9.8183  117.0852 C   0  0  1  0  0  0  0  0  0  0  0  0
   59.2665   11.1001  117.8374 C   0  0  0  0  0  0  0  0  0  0  0  0
   59.6718   11.1065  119.2047 O   0  0  0  0  0  0  0  0  0  0  0  0
   58.6458    5.9445  113.4949 C   0  0  0  0  0  0  0  0  0  0  0  0
   57.4314    6.1075  113.5072 O   0  0  0  0  0  0  0  0  0  0  0  0
   59.3361    5.0967  112.4613 C   0  0  0  0  0  0  0  0  0  0  0  0
  1  2  1  0
  2  3  1  1
  2  4  1  0
  4  5  1  1
  4  6  1  0
  6  7  1  6
  6  8  1  0
  8  9  1  6
  1 10  1  0
  8 10  1  0
 10 11  1  6
 11 12  1  0
  5 13  1  0
 13 14  2  0
 13 15  1  0
M  END
