1P2Y_NCT_A_440
     RDKit          3D

 26 27  0  0  0  0  0  0  0  0999 V2000
   18.0668   12.5307   37.4601 N   0  0  0  0  0  0  0  0  0  0  0  0
   18.6821   13.2239   38.4184 C   0  0  0  0  0  0  0  0  0  0  0  0
   18.3962   13.0751   39.7582 C   0  0  0  0  0  0  0  0  0  0  0  0
   17.4091   12.1574   40.1009 C   0  0  0  0  0  0  0  0  0  0  0  0
   16.7435   11.4478   39.1178 C   0  0  0  0  0  0  0  0  0  0  0  0
   17.1122   11.6589   37.8002 C   0  0  0  0  0  0  0  0  0  0  0  0
   19.8961   13.0525   41.7512 N   0  0  0  0  0  0  0  0  0  0  0  0
   19.1533   13.8610   40.7995 C   0  0  1  0  0  0  0  0  0  0  0  0
   20.2590   14.7196   40.1543 C   0  0  0  0  0  0  0  0  0  0  0  0
   21.2898   14.9260   41.2728 C   0  0  0  0  0  0  0  0  0  0  0  0
   20.8665   13.9319   42.3834 C   0  0  0  0  0  0  0  0  0  0  0  0
   19.0934   12.2857   42.6814 C   0  0  0  0  0  0  0  0  0  0  0  0
   19.4074   13.9047   38.1436 H   0  0  0  0  0  0  0  0  0  0  0  0
   17.1721   12.0052   41.0936 H   0  0  0  0  0  0  0  0  0  0  0  0
   15.9941   10.7807   39.3594 H   0  0  0  0  0  0  0  0  0  0  0  0
   16.6347   11.1260   37.0566 H   0  0  0  0  0  0  0  0  0  0  0  0
   18.3777   14.4164   41.2841 H   0  0  0  0  0  0  0  0  0  0  0  0
   19.8649   15.6585   39.8257 H   0  0  0  0  0  0  0  0  0  0  0  0
   20.6845   14.2520   39.2911 H   0  0  0  0  0  0  0  0  0  0  0  0
   21.2581   15.9324   41.6346 H   0  0  0  0  0  0  0  0  0  0  0  0
   22.2917   14.7568   40.9373 H   0  0  0  0  0  0  0  0  0  0  0  0
   21.7107   13.3732   42.7299 H   0  0  0  0  0  0  0  0  0  0  0  0
   20.4592   14.4324   43.2370 H   0  0  0  0  0  0  0  0  0  0  0  0
   18.4092   11.6684   42.1375 H   0  0  0  0  0  0  0  0  0  0  0  0
   18.5462   12.9527   43.3143 H   0  0  0  0  0  0  0  0  0  0  0  0
   19.7316   11.6696   43.2796 H   0  0  0  0  0  0  0  0  0  0  0  0
  1  2  2  0
  2  3  1  0
  3  4  2  0
  4  5  1  0
  1  6  1  0
  5  6  2  0
  8  3  1  0
  7  8  1  0
  8  9  1  0
  9 10  1  0
  7 11  1  0
 10 11  1  0
  7 12  1  0
  2 13  1  0
  4 14  1  0
  5 15  1  0
  6 16  1  0
  8 17  1  1
  9 18  1  0
  9 19  1  0
 10 20  1  0
 10 21  1  0
 11 22  1  0
 11 23  1  0
 12 24  1  0
 12 25  1  0
 12 26  1  0
M  END
