1HP0_AD3_A_1315
     RDKit          3D

 19 21  0  0  0  0  0  0  0  0999 V2000
   15.6314   24.3225    9.3565 O   0  0  0  0  0  0  0  0  0  0  0  0
   15.2684   25.6604    9.2105 C   0  0  0  0  0  0  0  0  0  0  0  0
   15.2059   26.2826   10.6105 C   0  0  1  0  0  0  0  0  0  0  0  0
   15.5280   25.3626   11.5740 O   0  0  0  0  0  0  0  0  0  0  0  0
   16.2880   27.3544   10.6338 C   0  0  1  0  0  0  0  0  0  0  0  0
   15.7300   28.5822   10.9890 O   0  0  0  0  0  0  0  0  0  0  0  0
   17.2000   26.8175   11.7294 C   0  0  1  0  0  0  0  0  0  0  0  0
   17.8467   27.8189   12.4180 O   0  0  0  0  0  0  0  0  0  0  0  0
   16.1535   26.0964   12.5688 C   0  0  2  0  0  0  0  0  0  0  0  0
   16.6911   25.3133   13.6251 N   0  0  0  0  0  0  0  0  0  0  0  0
   16.8119   23.9869   13.7120 C   0  0  0  0  0  0  0  0  0  0  0  0
   17.3767   23.6482   14.8852 N   0  0  0  0  0  0  0  0  0  0  0  0
   17.6302   24.7688   15.5783 C   0  0  0  0  0  0  0  0  0  0  0  0
   18.1957   25.0270   16.8312 C   0  0  0  0  0  0  0  0  0  0  0  0
   18.6337   23.9245   17.6311 N   0  0  0  0  0  0  0  0  0  0  0  0
   18.3180   26.3024   17.2617 N   0  0  0  0  0  0  0  0  0  0  0  0
   17.9069   27.3455   16.5121 C   0  0  0  0  0  0  0  0  0  0  0  0
   17.3526   27.0852   15.2832 C   0  0  0  0  0  0  0  0  0  0  0  0
   17.1923   25.8119   14.7710 C   0  0  0  0  0  0  0  0  0  0  0  0
  2  1  1  6
  3  2  1  0
  3  4  1  1
  3  5  1  0
  5  6  1  1
  5  7  1  0
  7  8  1  1
  4  9  1  0
  7  9  1  0
  9 10  1  1
 10 11  1  0
 11 12  2  0
 12 13  1  0
 13 14  2  0
 14 15  1  0
 14 16  1  0
 16 17  2  0
 17 18  1  0
 10 19  1  0
 13 19  1  0
 18 19  2  0
M  END
$$$$
