7SUC_COM_A_604
     RDKit          3D

  7  6  0  0  0  0  0  0  0  0999 V2000
   26.8296   38.7953  -30.7810 C   0  0  0  0  0  0  0  0  0  0  0  0
   26.5681   39.3536  -29.3782 C   0  0  0  0  0  0  0  0  0  0  0  0
   28.2675   39.5697  -31.5403 S   0  0  0  0  0  0  0  0  0  0  0  0
   25.2502   38.4449  -28.5514 S   0  0  2  0  0  0  0  0  0  0  0  0
   23.9586   38.7021  -29.2545 O   0  0  0  0  0  0  0  0  0  0  0  0
   25.1761   38.9192  -27.1069 O   0  0  0  0  0  0  0  0  0  0  0  0
   25.5668   36.9773  -28.5424 O   0  0  0  0  0  0  0  0  0  0  0  0
  1  2  1  0
  1  3  1  0
  2  4  1  0
  4  5  2  0
  4  6  2  0
  4  7  1  1
M  END
