7XI7_4RI_A_201
     RDKit          3D

 20 21  0  0  0  0  0  0  0  0999 V2000
   -3.7260  -19.4888   -0.1792 C   0  0  0  0  0  0  0  0  0  0  0  0
   -2.4422  -19.7684   -0.5803 C   0  0  0  0  0  0  0  0  0  0  0  0
   -1.4932  -20.0417    0.3941 C   0  0  0  0  0  0  0  0  0  0  0  0
   -1.8071  -20.0650    1.6709 N   0  0  0  0  0  0  0  0  0  0  0  0
   -4.0452  -19.5028    1.1039 N   0  0  0  0  0  0  0  0  0  0  0  0
   -5.8391  -14.9698   -4.9191 C   0  0  0  0  0  0  0  0  0  0  0  0
   -5.0493  -15.1821   -3.6256 C   0  0  0  0  0  0  0  0  0  0  0  0
   -5.0614  -16.6652   -3.2674 C   0  0  0  0  0  0  0  0  0  0  0  0
   -4.5430  -16.7845   -1.8340 C   0  0  0  0  0  0  0  0  0  0  0  0
   -5.3914  -17.7634   -1.0264 C   0  0  0  0  0  0  0  0  0  0  0  0
   -4.8366  -19.1785   -1.1834 C   0  0  0  0  0  0  0  0  0  0  0  0
   -3.0712  -19.7935    1.9541 C   0  0  0  0  0  0  0  0  0  0  0  0
   -3.4521  -19.7915    3.3516 N   0  0  0  0  0  0  0  0  0  0  0  0
   -0.1304  -20.3273    0.0421 N   0  0  0  0  0  0  0  0  0  0  0  0
   -2.0037  -19.7448   -2.0481 C   0  0  0  0  0  0  0  0  0  0  0  0
   -2.0827  -20.8158   -2.8343 C   0  0  0  0  0  0  0  0  0  0  0  0
   -1.6100  -20.7005   -4.2801 C   0  0  0  0  0  0  0  0  0  0  0  0
   -1.1146  -19.5573   -4.7262 C   0  0  0  0  0  0  0  0  0  0  0  0
   -1.0230  -18.3468   -3.8157 C   0  0  0  0  0  0  0  0  0  0  0  0
   -1.4332  -18.4392   -2.5698 C   0  0  0  0  0  0  0  0  0  0  0  0
  1  2  2  0
  2  3  1  0
  3  4  2  0
  1  5  1  0
  6  7  1  0
  7  8  1  0
  8  9  1  0
  9 10  1  0
 10 11  1  0
  1 11  1  0
  5 12  2  0
  4 12  1  0
 12 13  1  0
  3 14  1  0
  2 15  1  0
 15 16  2  0
 16 17  1  0
 17 18  2  0
 18 19  1  0
 15 20  1  0
 19 20  2  0
M  END
