7PRM_81I_A_401
     RDKit          3D

 56 60  0  0  0  0  0  0  0  0999 V2000
  130.3320   24.0648   -5.9971 C   0  0  0  0  0  0  0  0  0  0  0  0
  129.4838   23.8276   -7.0820 C   0  0  0  0  0  0  0  0  0  0  0  0
  128.2074   23.2751   -6.8825 C   0  0  0  0  0  0  0  0  0  0  0  0
  127.3296   23.0197   -7.9964 N   0  0  0  0  0  0  0  0  0  0  0  0
  127.3261   23.7140   -9.2308 C   0  0  0  0  0  0  0  0  0  0  0  0
  127.9212   24.8095   -9.4146 O   0  0  0  0  0  0  0  0  0  0  0  0
  126.5153   23.0426  -10.2633 C   0  0  1  0  0  0  0  0  0  0  0  0
  125.7165   21.9941   -9.4559 C   0  0  1  0  0  0  0  0  0  0  0  0
  125.5432   20.7153  -10.2038 N   0  0  0  0  0  0  0  0  0  0  0  0
  124.9104   19.6398   -9.4005 C   0  0  2  0  0  0  0  0  0  0  0  0
  123.4766   20.0081   -8.9858 C   0  0  1  0  0  0  0  0  0  0  0  0
  122.8050   20.7540  -10.0569 N   0  0  0  0  0  0  0  0  0  0  0  0
  121.7326   21.6744   -9.7637 C   0  0  0  0  0  0  0  0  0  0  0  0
  121.2061   22.3372  -10.7002 O   0  0  0  0  0  0  0  0  0  0  0  0
  121.2234   21.8596   -8.3902 C   0  0  0  0  0  0  0  0  0  0  0  0
  120.0446   21.4598   -7.9716 O   0  0  0  0  0  0  0  0  0  0  0  0
  119.9024   21.8119   -6.7151 C   0  0  0  0  0  0  0  0  0  0  0  0
  121.0368   22.4707   -6.2856 C   0  0  0  0  0  0  0  0  0  0  0  0
  121.8920   22.5018   -7.3653 C   0  0  0  0  0  0  0  0  0  0  0  0
  123.3072   20.5998  -11.4266 C   0  0  2  0  0  0  0  0  0  0  0  0
  124.8224   20.8975  -11.4959 C   0  0  2  0  0  0  0  0  0  0  0  0
  126.5167   21.8213   -8.1365 C   0  0  1  0  0  0  0  0  0  0  0  0
  127.8041   22.9501   -5.5781 C   0  0  0  0  0  0  0  0  0  0  0  0
  128.6524   23.1850   -4.4930 C   0  0  0  0  0  0  0  0  0  0  0  0
  129.9252   23.7470   -4.6901 C   0  0  0  0  0  0  0  0  0  0  0  0
  130.8270   23.9970   -3.5378 C   0  0  0  0  0  0  0  0  0  0  0  0
  131.3180   25.2913   -3.2815 C   0  0  0  0  0  0  0  0  0  0  0  0
  132.1658   25.5246   -2.1940 C   0  0  0  0  0  0  0  0  0  0  0  0
  132.5343   24.4714   -1.3536 C   0  0  0  0  0  0  0  0  0  0  0  0
  132.0543   23.1825   -1.5988 C   0  0  0  0  0  0  0  0  0  0  0  0
  131.2044   22.9441   -2.6831 C   0  0  0  0  0  0  0  0  0  0  0  0
  133.3576   24.6996   -0.3004 F   0  0  0  0  0  0  0  0  0  0  0  0
  131.3166   24.4753   -6.1834 H   0  0  0  0  0  0  0  0  0  0  0  0
  129.8386   24.0521   -8.0790 H   0  0  0  0  0  0  0  0  0  0  0  0
  125.8428   23.7707  -10.7653 H   0  0  0  0  0  0  0  0  0  0  0  0
  127.1927   22.5586  -10.9984 H   0  0  0  0  0  0  0  0  0  0  0  0
  124.7255   22.4392   -9.2097 H   0  0  0  0  0  0  0  0  0  0  0  0
  125.5120   19.3910   -8.5029 H   0  0  0  0  0  0  0  0  0  0  0  0
  124.8833   18.7056  -10.0045 H   0  0  0  0  0  0  0  0  0  0  0  0
  122.9048   19.0841   -8.7553 H   0  0  0  0  0  0  0  0  0  0  0  0
  123.5252   20.6314   -8.0662 H   0  0  0  0  0  0  0  0  0  0  0  0
  119.0216   21.6105   -6.1204 H   0  0  0  0  0  0  0  0  0  0  0  0
  121.2175   22.8821   -5.3015 H   0  0  0  0  0  0  0  0  0  0  0  0
  122.8776   22.9485   -7.3994 H   0  0  0  0  0  0  0  0  0  0  0  0
  122.7608   21.2524  -12.1421 H   0  0  0  0  0  0  0  0  0  0  0  0
  123.1263   19.5511  -11.7502 H   0  0  0  0  0  0  0  0  0  0  0  0
  125.2787   20.2174  -12.2472 H   0  0  0  0  0  0  0  0  0  0  0  0
  124.9560   21.9196  -11.9064 H   0  0  0  0  0  0  0  0  0  0  0  0
  127.1992   20.9460   -8.1960 H   0  0  0  0  0  0  0  0  0  0  0  0
  125.8242   21.7071   -7.2762 H   0  0  0  0  0  0  0  0  0  0  0  0
  126.8235   22.5330   -5.3942 H   0  0  0  0  0  0  0  0  0  0  0  0
  128.3040   22.9448   -3.4964 H   0  0  0  0  0  0  0  0  0  0  0  0
  131.0320   26.1249   -3.9111 H   0  0  0  0  0  0  0  0  0  0  0  0
  132.5338   26.5245   -2.0016 H   0  0  0  0  0  0  0  0  0  0  0  0
  132.3431   22.3654   -0.9506 H   0  0  0  0  0  0  0  0  0  0  0  0
  130.8571   21.9346   -2.8636 H   0  0  0  0  0  0  0  0  0  0  0  0
  1  2  2  0
  2  3  1  0
  3  4  1  0
  4  5  1  0
  5  6  2  0
  5  7  1  0
  7  8  1  0
  8  9  1  0
  9 10  1  0
 10 11  1  0
 11 12  1  0
 12 13  1  0
 13 14  2  0
 13 15  1  0
 15 16  1  0
 16 17  1  0
 17 18  2  0
 18 19  1  0
 15 19  2  0
 12 20  1  0
 20 21  1  0
  9 21  1  0
  8 22  1  0
  4 22  1  0
  3 23  2  0
 23 24  1  0
  1 25  1  0
 24 25  2  0
 25 26  1  0
 26 27  2  0
 27 28  1  0
 28 29  2  0
 29 30  1  0
 30 31  2  0
 26 31  1  0
 29 32  1  0
  1 33  1  0
  2 34  1  0
  7 35  1  6
  7 36  1  0
  8 37  1  1
 10 38  1  1
 10 39  1  0
 11 40  1  1
 11 41  1  0
 17 42  1  0
 18 43  1  0
 19 44  1  0
 20 45  1  6
 20 46  1  0
 21 47  1  6
 21 48  1  0
 22 49  1  6
 22 50  1  0
 23 51  1  0
 24 52  1  0
 27 53  1  0
 28 54  1  0
 30 55  1  0
 31 56  1  0
M  END
