7LOU_IFM_B_612
     RDKit          3D

 10 10  0  0  0  0  0  0  0  0999 V2000
   -9.5903   22.7409   72.3514 O   0  0  0  0  0  0  0  0  0  0  0  0
  -10.9031   22.4527   72.7134 C   0  0  1  0  0  0  0  0  0  0  0  0
  -11.2856   21.1513   71.9949 C   0  0  2  0  0  0  0  0  0  0  0  0
  -11.0285   21.2432   70.6497 O   0  0  0  0  0  0  0  0  0  0  0  0
  -12.7716   20.9628   72.2734 C   0  0  0  0  0  0  0  0  0  0  0  0
  -12.9377   20.7566   73.6881 N   0  0  0  0  0  0  0  0  0  0  0  0
  -12.4726   21.8588   74.4879 C   0  0  0  0  0  0  0  0  0  0  0  0
  -11.0121   22.1269   74.1867 C   0  0  2  0  0  0  0  0  0  0  0  0
  -10.4882   23.2402   75.0605 C   0  0  0  0  0  0  0  0  0  0  0  0
  -10.0292   22.8145   76.2812 O   0  0  0  0  0  0  0  0  0  0  0  0
  2  1  1  1
  2  3  1  0
  3  4  1  6
  3  5  1  0
  5  6  1  0
  6  7  1  0
  2  8  1  0
  7  8  1  0
  8  9  1  1
  9 10  1  0
M  END
$$$$
