7O1T_5X8_A_407
     RDKit          3D

 25 27  0  0  0  0  0  0  0  0999 V2000
  -13.9379   -1.1369   -6.4839 N   0  0  0  0  0  0  0  0  0  0  0  0
  -14.2193   -1.1713   -8.7921 C   0  0  0  0  0  0  0  0  0  0  0  0
  -13.8271   -0.9450  -10.9112 C   0  0  0  0  0  0  0  0  0  0  0  0
  -12.6966   -0.6389   -6.6480 C   0  0  0  0  0  0  0  0  0  0  0  0
  -14.7353   -1.4183   -7.5353 C   0  0  0  0  0  0  0  0  0  0  0  0
  -12.1982   -0.4000   -7.8761 N   0  0  0  0  0  0  0  0  0  0  0  0
  -12.9554   -0.6635   -8.9767 C   0  0  0  0  0  0  0  0  0  0  0  0
  -12.4285    4.1900  -13.7285 O   0  0  0  0  0  0  0  0  0  0  0  0
  -13.1081    3.0426  -13.3072 C   0  0  0  0  0  0  0  0  0  0  0  0
  -13.1542    2.8138  -12.0706 O   0  0  0  0  0  0  0  0  0  0  0  0
  -13.7606    2.1147  -14.2889 C   0  0  1  0  0  0  0  0  0  0  0  0
  -14.1276    2.8876  -15.4150 N   0  0  0  0  0  0  0  0  0  0  0  0
  -12.9061    0.9072  -14.5421 C   0  0  0  0  0  0  0  0  0  0  0  0
  -11.2380    1.1773  -15.0076 S   0  0  0  0  0  0  0  0  0  0  0  0
   -9.9351    0.9854  -13.8613 C   0  0  0  0  0  0  0  0  0  0  0  0
  -10.2524    0.7155  -12.4386 C   0  0  1  0  0  0  0  0  0  0  0  0
  -11.5780    0.3425  -12.1889 O   0  0  0  0  0  0  0  0  0  0  0  0
   -9.3805   -0.2382  -11.7108 C   0  0  1  0  0  0  0  0  0  0  0  0
   -8.5141    0.4013  -10.7950 O   0  0  0  0  0  0  0  0  0  0  0  0
  -10.3778   -1.0380  -10.8959 C   0  0  1  0  0  0  0  0  0  0  0  0
   -9.8852   -1.3459   -9.6343 O   0  0  0  0  0  0  0  0  0  0  0  0
  -11.4973   -0.0236  -10.8388 C   0  0  2  0  0  0  0  0  0  0  0  0
  -12.7191   -0.5259  -10.2973 N   0  0  0  0  0  0  0  0  0  0  0  0
  -14.7538   -1.3433   -9.9952 N   0  0  0  0  0  0  0  0  0  0  0  0
  -16.0618   -1.9510   -7.3557 N   0  0  0  0  0  0  0  0  0  0  0  0
  1  4  2  0
  1  5  1  0
  2  5  2  0
  4  6  1  0
  6  7  2  0
  2  7  1  0
  8  9  1  0
  9 10  2  0
  9 11  1  0
 11 12  1  6
 11 13  1  0
 13 14  1  0
 14 15  1  0
 16 15  1  6
 16 17  1  0
 16 18  1  0
 18 19  1  1
 18 20  1  0
 20 21  1  1
 17 22  1  0
 20 22  1  0
 22 23  1  6
  7 23  1  0
  3 23  1  0
  2 24  1  0
  3 24  2  0
  5 25  1  0
M  END
$$$$
