7ECR_SIN_C_508
     RDKit          3D

  8  7  0  0  0  0  0  0  0  0999 V2000
  -46.0977  -25.0050  -65.6815 C   0  0  0  0  0  0  0  0  0  0  0  0
  -45.9082  -25.8034  -66.6347 O   0  0  0  0  0  0  0  0  0  0  0  0
  -45.7729  -23.6438  -65.8254 O   0  0  0  0  0  0  0  0  0  0  0  0
  -46.6632  -25.5597  -64.4185 C   0  0  0  0  0  0  0  0  0  0  0  0
  -46.5016  -27.0667  -64.3284 C   0  0  0  0  0  0  0  0  0  0  0  0
  -47.2339  -27.5462  -63.1173 C   0  0  0  0  0  0  0  0  0  0  0  0
  -46.7930  -27.6026  -61.9618 O   0  0  0  0  0  0  0  0  0  0  0  0
  -48.5760  -27.9917  -63.2668 O   0  0  0  0  0  0  0  0  0  0  0  0
  1  2  2  0
  1  3  1  0
  4  1  1  6
  4  5  1  0
  5  6  1  6
  6  7  2  0
  6  8  1  0
M  END
$$$$
