
     RDKit          3D

 43 48  0  0  0  0  0  0  0  0999 V2000
   41.3358   11.8599   54.2617 C   0  0  1  0  0  0  0  0  0  0  0  0
   41.2490   10.7609   52.1524 C   0  0  1  0  0  0  0  0  0  0  0  0
   42.1744    9.9564   49.9737 C   0  0  0  0  0  0  0  0  0  0  0  0
   43.1112    9.0035   49.6432 C   0  0  0  0  0  0  0  0  0  0  0  0
   43.0480    9.0246   51.7648 C   0  0  0  0  0  0  0  0  0  0  0  0
   43.3903    8.7876   48.2403 C   0  0  0  0  0  0  0  0  0  0  0  0
   41.7486   10.5710   47.8804 C   0  0  0  0  0  0  0  0  0  0  0  0
   40.3632   10.0438   53.1445 C   0  0  0  0  0  0  0  0  0  0  0  0
   39.9906   11.2064   54.0364 C   0  0  1  0  0  0  0  0  0  0  0  0
   39.0114    9.4495   52.8208 C   0  0  0  0  0  0  0  0  0  0  0  0
   41.8742   11.2917   58.7986 O   0  0  0  0  0  0  0  0  0  0  0  0
   41.3527   12.1700   57.7144 P   0  0  1  0  0  5  0  0  0  0  0  0
   39.9816   11.5924   57.1164 O   0  0  0  0  0  0  0  0  0  0  0  0
   40.9537   13.6619   58.1459 O   0  0  0  0  0  0  0  0  0  0  0  0
   41.1751   14.6989   57.2095 C   0  0  1  0  0  0  0  0  0  0  0  0
   40.0161   14.8816   56.2419 C   0  0  2  0  0  0  0  0  0  0  0  0
   39.9379   13.7973   55.1683 C   0  0  0  0  0  0  0  0  0  0  0  0
   39.6915   14.3981   53.8979 O   0  0  0  0  0  0  0  0  0  0  0  0
   40.2712   16.1725   55.6487 O   0  0  0  0  0  0  0  0  0  0  0  0
   40.8482   17.0038   56.6851 C   0  0  2  0  0  0  0  0  0  0  0  0
   41.9794   17.7504   56.1250 N   0  0  0  0  0  0  0  0  0  0  0  0
   42.2370   17.7504   54.7670 C   0  0  0  0  0  0  0  0  0  0  0  0
   43.2586   18.4291   54.2388 C   0  0  0  0  0  0  0  0  0  0  0  0
   44.1239   19.2199   55.1269 C   0  0  0  0  0  0  0  0  0  0  0  0
   45.0754   19.8498   54.6796 O   0  0  0  0  0  0  0  0  0  0  0  0
   43.7986   19.1902   56.4501 N   0  0  0  0  0  0  0  0  0  0  0  0
   42.7828   18.4604   57.0165 C   0  0  0  0  0  0  0  0  0  0  0  0
   42.6392   18.4698   58.2369 O   0  0  0  0  0  0  0  0  0  0  0  0
   41.2317   16.0733   57.8617 C   0  0  1  0  0  0  0  0  0  0  0  0
   40.2539   16.1554   58.9100 O   0  0  0  0  0  0  0  0  0  0  0  0
   42.2795   12.3159   56.4202 O   0  0  0  0  0  0  0  0  0  0  0  0
   42.1640   11.3109   55.4226 C   0  0  0  0  0  0  0  0  0  0  0  0
   39.1170   10.5347   55.0716 C   0  0  0  0  0  0  0  0  0  0  0  0
   38.2944    9.5472   54.1972 C   0  0  2  0  0  0  0  0  0  0  0  0
   38.2263    8.2782   54.8048 O   0  0  0  0  0  0  0  0  0  0  0  0
   36.9779   10.0175   54.0473 O   0  0  0  0  0  0  0  0  0  0  0  0
   42.0527   11.6333   53.0053 O   0  0  0  0  0  0  0  0  0  0  0  0
   42.1288    9.9511   51.3425 N   0  0  0  0  0  0  0  0  0  0  0  0
   43.6394    8.4103   50.7602 N   0  0  0  0  0  0  0  0  0  0  0  0
   41.4584   10.7516   49.1408 N   0  0  0  0  0  0  0  0  0  0  0  0
   41.1358   11.3264   46.9307 N   0  0  0  0  0  0  0  0  0  0  0  0
   42.6697    9.6500   47.4243 N   0  0  0  0  0  0  0  0  0  0  0  0
   44.1654    7.9540   47.7826 O   0  0  0  0  0  0  0  0  0  0  0  0
  3  4  4  0
  4  6  4  0
  2  8  1  0
  8  9  1  0
  1  9  1  0
  8 10  1  0
 11 12  2  0
 12 13  1  6
 12 14  1  0
 15 14  1  1
 15 16  1  0
 16 17  1  6
 17 18  1  0
 16 19  1  0
 19 20  1  0
 20 21  1  6
 21 22  4  0
 22 23  4  0
 23 24  4  0
 24 25  2  0
 24 26  4  0
 26 27  4  0
 21 27  4  0
 27 28  2  0
 20 29  1  0
 15 29  1  0
 29 30  1  1
 12 31  1  0
  1 32  1  1
 31 32  1  0
  9 33  1  1
 10 34  1  0
 33 34  1  0
 34 35  1  1
 34 36  1  0
  2 37  1  0
  1 37  1  0
  2 38  1  1
  3 38  4  0
  5 38  4  0
  4 39  4  0
  5 39  4  0
  7 40  4  0
  3 40  4  0
  7 41  1  0
  7 42  4  0
  6 42  4  0
  6 43  2  0
M  END
