7FT9_4MB_C_301
     RDKit          3D

 23 23  0  0  0  0  0  0  0  0999 V2000
  -16.0945    2.1706  -43.4480 C   0  0  0  0  0  0  0  0  0  0  0  0
  -17.6218    2.0614  -45.3374 C   0  0  0  0  0  0  0  0  0  0  0  0
  -15.7569    0.2633  -41.9480 N   0  0  0  0  0  0  0  0  0  0  0  0
  -16.3980    0.8462  -43.0978 C   0  0  0  0  0  0  0  0  0  0  0  0
  -16.6971    2.7725  -44.5560 C   0  0  0  0  0  0  0  0  0  0  0  0
  -18.2581    2.7010  -46.5100 C   0  0  0  0  0  0  0  0  0  0  0  0
  -17.9325    0.7368  -44.9855 C   0  0  0  0  0  0  0  0  0  0  0  0
  -15.4290   -2.4969  -42.7194 C   0  0  2  0  0  0  0  0  0  0  0  0
  -17.3292    0.1354  -43.8768 C   0  0  0  0  0  0  0  0  0  0  0  0
  -19.4309    2.3872  -46.8507 O   0  0  0  0  0  0  0  0  0  0  0  0
  -17.5664    3.6569  -47.2497 O   0  0  0  0  0  0  0  0  0  0  0  0
  -15.9596   -1.3832  -41.4355 S   0  0  1  0  0  6  0  0  0  0  0  0
  -15.1107   -1.6197  -40.2184 O   0  0  0  0  0  0  0  0  0  0  0  0
  -17.3965   -1.6390  -41.0773 O   0  0  0  0  0  0  0  0  0  0  0  0
  -15.3840    2.7395  -42.8613 H   0  0  0  0  0  0  0  0  0  0  0  0
  -15.0732    0.8392  -41.4073 H   0  0  0  0  0  0  0  0  0  0  0  0
  -16.4376    3.7952  -44.7990 H   0  0  0  0  0  0  0  0  0  0  0  0
  -18.6448    0.1637  -45.5659 H   0  0  0  0  0  0  0  0  0  0  0  0
  -15.6532   -2.0670  -43.7160 H   0  0  0  0  0  0  0  0  0  0  0  0
  -15.9598   -3.4652  -42.6121 H   0  0  0  0  0  0  0  0  0  0  0  0
  -14.3360   -2.6659  -42.6324 H   0  0  0  0  0  0  0  0  0  0  0  0
  -17.6045   -0.8802  -43.6373 H   0  0  0  0  0  0  0  0  0  0  0  0
  -17.8378    3.8752  -48.2010 H   0  0  0  0  0  0  0  0  0  0  0  0
  1  4  2  0
  3  4  1  0
  1  5  1  0
  2  5  2  0
  2  6  1  0
  2  7  1  0
  4  9  1  0
  7  9  2  0
  6 10  2  0
  6 11  1  0
 12  3  1  6
  8 12  1  0
 12 13  2  0
 12 14  2  0
  1 15  1  0
  3 16  1  0
  5 17  1  0
  7 18  1  0
  8 19  1  6
  8 20  1  0
  8 21  1  0
  9 22  1  0
 11 23  1  0
M  END
