7AKL_RK5_A_501
     RDKit          3D

 34 36  0  0  0  0  0  0  0  0999 V2000
   40.9919    2.7829    8.8049 C   0  0  2  0  0  0  0  0  0  0  0  0
   41.4432    3.2375   10.1539 C   0  0  0  0  0  0  0  0  0  0  0  0
   41.7892    2.4135   11.2242 C   0  0  0  0  0  0  0  0  0  0  0  0
   41.8646    0.9186   11.2411 C   0  0  2  0  0  0  0  0  0  0  0  0
   42.1587    3.2815   12.2298 C   0  0  0  0  0  0  0  0  0  0  0  0
   42.6253    3.0526   13.5234 C   0  0  0  0  0  0  0  0  0  0  0  0
   42.9229    4.1734   14.3353 C   0  0  0  0  0  0  0  0  0  0  0  0
   42.7418    5.4821   13.8095 C   0  0  0  0  0  0  0  0  0  0  0  0
   42.2752    5.6742   12.4969 C   0  0  0  0  0  0  0  0  0  0  0  0
   41.9950    4.5470   11.7325 C   0  0  0  0  0  0  0  0  0  0  0  0
   41.5672    4.5081   10.4931 O   0  0  0  0  0  0  0  0  0  0  0  0
   43.4199    3.9831   15.7217 C   0  0  0  0  0  0  0  0  0  0  0  0
   43.1582    4.9431   16.7137 C   0  0  0  0  0  0  0  0  0  0  0  0
   43.6342    4.7454   18.0155 C   0  0  0  0  0  0  0  0  0  0  0  0
   43.3727    5.7094   19.0358 N   0  0  0  0  0  0  0  0  0  0  0  0
   44.3474    3.6265   18.3125 N   0  0  0  0  0  0  0  0  0  0  0  0
   44.6197    2.6771   17.3781 C   0  0  0  0  0  0  0  0  0  0  0  0
   45.3765    1.5224   17.7421 N   0  0  0  0  0  0  0  0  0  0  0  0
   44.1596    2.8392   16.0657 C   0  0  0  0  0  0  0  0  0  0  0  0
   39.9891    2.3143    8.8853 H   0  0  0  0  0  0  0  0  0  0  0  0
   41.7134    2.0447    8.3967 H   0  0  0  0  0  0  0  0  0  0  0  0
   40.9320    3.6490    8.1131 H   0  0  0  0  0  0  0  0  0  0  0  0
   42.9192    0.6008   11.1074 H   0  0  0  0  0  0  0  0  0  0  0  0
   41.2477    0.4907   10.4239 H   0  0  0  0  0  0  0  0  0  0  0  0
   41.4839    0.5279   12.2077 H   0  0  0  0  0  0  0  0  0  0  0  0
   42.7362    2.0416   13.8940 H   0  0  0  0  0  0  0  0  0  0  0  0
   42.9808    6.3522   14.4076 H   0  0  0  0  0  0  0  0  0  0  0  0
   42.1453    6.6691   12.0913 H   0  0  0  0  0  0  0  0  0  0  0  0
   42.5754    5.8270   16.4855 H   0  0  0  0  0  0  0  0  0  0  0  0
   42.8523    6.5897   18.8230 H   0  0  0  0  0  0  0  0  0  0  0  0
   43.7019    5.5435   20.0126 H   0  0  0  0  0  0  0  0  0  0  0  0
   45.8158    1.4583   18.6872 H   0  0  0  0  0  0  0  0  0  0  0  0
   45.5015    0.7291   17.0744 H   0  0  0  0  0  0  0  0  0  0  0  0
   44.3932    2.0889   15.3203 H   0  0  0  0  0  0  0  0  0  0  0  0
  1  2  1  0
  2  3  2  0
  3  4  1  0
  3  5  1  0
  5  6  1  0
  6  7  2  0
  7  8  1  0
  8  9  2  0
  5 10  2  0
  9 10  1  0
  2 11  1  0
 10 11  1  0
  7 12  1  0
 12 13  2  0
 13 14  1  0
 14 15  1  0
 14 16  2  0
 16 17  1  0
 17 18  1  0
 17 19  2  0
 12 19  1  0
  1 20  1  1
  1 21  1  0
  1 22  1  0
  4 23  1  6
  4 24  1  0
  4 25  1  0
  6 26  1  0
  8 27  1  0
  9 28  1  0
 13 29  1  0
 15 30  1  0
 15 31  1  0
 18 32  1  0
 18 33  1  0
 19 34  1  0
M  END
