7V3S_5I9_A_1401
     RDKit          3D

 38 43  0  0  0  0  0  0  0  0999 V2000
   -9.5041  -22.6206   29.9551 N   0  0  0  0  0  0  0  0  0  0  0  0
   -5.7060  -13.6906   28.1033 N   0  0  0  0  0  0  0  0  0  0  0  0
   -9.7549  -24.5103   28.4678 C   0  0  0  0  0  0  0  0  0  0  0  0
   -9.1441  -23.3009   28.8105 C   0  0  0  0  0  0  0  0  0  0  0  0
   -8.1449  -22.7846   27.9775 C   0  0  0  0  0  0  0  0  0  0  0  0
   -9.1626  -21.2189   29.9578 C   0  0  0  0  0  0  0  0  0  0  0  0
   -7.7092  -21.0709   29.5810 C   0  0  0  0  0  0  0  0  0  0  0  0
   -8.0065  -18.7642   30.4758 C   0  0  0  0  0  0  0  0  0  0  0  0
   -7.1117  -17.0865   27.8516 C   0  0  0  0  0  0  0  0  0  0  0  0
   -5.8253  -15.0977   28.2751 C   0  0  0  0  0  0  0  0  0  0  0  0
   -5.1044  -17.2052   29.1198 C   0  0  0  0  0  0  0  0  0  0  0  0
   -3.0255  -12.2884   26.1991 C   0  0  0  0  0  0  0  0  0  0  0  0
   -5.5785  -11.8232   26.0139 C   0  0  0  0  0  0  0  0  0  0  0  0
   -3.2714  -11.0470   26.9751 C   0  0  0  0  0  0  0  0  0  0  0  0
   -7.8043  -10.9145   24.4111 C   0  0  0  0  0  0  0  0  0  0  0  0
   -8.4236   -9.9319   22.3563 C   0  0  0  0  0  0  0  0  0  0  0  0
   -6.1897   -9.7122   23.1110 C   0  0  0  0  0  0  0  0  0  0  0  0
   -7.7673  -23.4573   26.8230 C   0  0  0  0  0  0  0  0  0  0  0  0
   -7.3775  -19.6091   29.6089 C   0  0  0  0  0  0  0  0  0  0  0  0
   -6.1861  -17.8385   28.5512 C   0  0  0  0  0  0  0  0  0  0  0  0
   -6.9329  -15.7203   27.7145 C   0  0  0  0  0  0  0  0  0  0  0  0
   -4.9045  -15.8538   28.9947 C   0  0  0  0  0  0  0  0  0  0  0  0
   -4.5759  -12.9624   28.1035 C   0  0  0  0  0  0  0  0  0  0  0  0
   -4.3803  -12.0988   26.8886 C   0  0  2  0  0  0  0  0  0  0  0  0
   -8.3968  -24.6440   26.5008 C   0  0  0  0  0  0  0  0  0  0  0  0
   -6.5161  -10.4212   24.2585 C   0  0  0  0  0  0  0  0  0  0  0  0
   -8.7754  -10.6533   23.4596 C   0  0  0  0  0  0  0  0  0  0  0  0
   -7.1586   -9.4546   22.1536 C   0  0  0  0  0  0  0  0  0  0  0  0
   -9.3822  -25.1621   27.3197 C   0  0  0  0  0  0  0  0  0  0  0  0
   -9.0276  -19.2751   31.3160 C   0  0  0  0  0  0  0  0  0  0  0  0
   -4.2136  -17.9441   29.8193 F   0  0  0  0  0  0  0  0  0  0  0  0
   -9.3735   -9.6848   21.4156 F   0  0  0  0  0  0  0  0  0  0  0  0
   -9.4858  -20.5018   31.2035 N   0  0  0  0  0  0  0  0  0  0  0  0
   -5.5220  -10.7376   25.2269 N   0  0  0  0  0  0  0  0  0  0  0  0
   -7.4930  -21.6022   28.2541 O   0  0  0  0  0  0  0  0  0  0  0  0
   -6.3784  -19.2062   28.7203 O   0  0  0  0  0  0  0  0  0  0  0  0
   -3.7430  -12.9894   28.9943 O   0  0  0  0  0  0  0  0  0  0  0  0
   -6.5323  -12.5836   26.0073 O   0  0  0  0  0  0  0  0  0  0  0  0
  3  4  1  0
  1  4  1  0
  4  5  2  0
  1  6  1  0
  6  7  2  0
  2 10  1  0
 12 14  1  0
  5 18  1  0
  8 19  2  0
  7 19  1  0
  9 20  2  0
 11 20  1  0
  9 21  1  0
 10 21  2  0
 10 22  1  0
 11 22  2  0
  2 23  1  0
 24 13  1  6
 12 24  1  0
 14 24  1  0
 23 24  1  0
 18 25  2  0
 17 26  1  0
 15 26  2  0
 16 27  2  0
 15 27  1  0
 16 28  1  0
 17 28  2  0
 25 29  1  0
  3 29  2  0
  8 30  1  0
 11 31  1  0
 16 32  1  0
  6 33  1  0
 30 33  2  0
 26 34  1  0
 13 34  1  0
  5 35  1  0
  7 35  1  0
 20 36  1  0
 19 36  1  0
 23 37  2  0
 13 38  2  0
M  END
