8FLN_Y7W_A_701
     RDKit          3D

 55 57  0  0  0  0  0  0  0  0999 V2000
  -23.5889    2.0989    1.6058 N   0  0  0  0  0  0  0  0  0  0  0  0
  -23.3857    4.4095    2.6054 C   0  0  0  0  0  0  0  0  0  0  0  0
  -23.7675    5.1743    1.5085 C   0  0  0  0  0  0  0  0  0  0  0  0
  -23.9240    4.7366    0.1057 C   0  0  0  0  0  0  0  0  0  0  0  0
  -24.8353    5.3975   -0.7329 C   0  0  0  0  0  0  0  0  0  0  0  0
  -24.9836    5.0048   -2.0665 C   0  0  0  0  0  0  0  0  0  0  0  0
  -24.3815    3.5071   -4.0103 C   0  0  1  0  0  0  0  0  0  0  0  0
  -26.9796    0.6479   -4.2672 C   0  0  0  0  0  0  0  0  0  0  0  0
  -28.9001   -0.7996   -4.6423 C   0  0  0  0  0  0  0  0  0  0  0  0
  -28.4153   -1.6973   -3.6915 C   0  0  0  0  0  0  0  0  0  0  0  0
  -24.5365   -0.9428   -1.8768 C   0  0  1  0  0  0  0  0  0  0  0  0
  -23.1368    3.6989   -0.4209 C   0  0  0  0  0  0  0  0  0  0  0  0
  -24.7455    7.8420    5.0304 C   0  0  1  0  0  0  0  0  0  0  0  0
  -22.6543    2.4404    3.7033 O   0  0  0  0  0  0  0  0  0  0  0  0
  -23.1809    2.9491    2.6784 C   0  0  0  0  0  0  0  0  0  0  0  0
  -24.2073    3.9577   -2.5862 C   0  0  0  0  0  0  0  0  0  0  0  0
  -24.9582    2.1655   -4.0446 N   0  0  0  0  0  0  0  0  0  0  0  0
  -26.2627    1.9033   -4.5866 C   0  0  0  0  0  0  0  0  0  0  0  0
  -28.1858    0.3644   -4.9319 C   0  0  0  0  0  0  0  0  0  0  0  0
  -30.0697   -1.0537   -5.2798 F   0  0  0  0  0  0  0  0  0  0  0  0
  -27.2085   -1.4418   -3.0363 C   0  0  0  0  0  0  0  0  0  0  0  0
  -26.4704   -0.2755   -3.3254 C   0  0  0  0  0  0  0  0  0  0  0  0
  -25.2270   -0.0256   -2.7202 O   0  0  0  0  0  0  0  0  0  0  0  0
  -26.8243    2.7653   -5.3170 O   0  0  0  0  0  0  0  0  0  0  0  0
  -23.2842    3.3073   -1.7541 C   0  0  0  0  0  0  0  0  0  0  0  0
  -23.9190    6.4583    1.8906 N   0  0  0  0  0  0  0  0  0  0  0  0
  -23.6467    6.5534    3.1842 N   0  0  0  0  0  0  0  0  0  0  0  0
  -23.7202    7.8469    3.8849 C   0  0  2  0  0  0  0  0  0  0  0  0
  -22.3272    8.3392    4.3138 C   0  0  2  0  0  0  0  0  0  0  0  0
  -21.3408    7.8687    3.4693 F   0  0  0  0  0  0  0  0  0  0  0  0
  -22.0542    7.9089    5.6000 F   0  0  0  0  0  0  0  0  0  0  0  0
  -22.3017    9.7219    4.2981 F   0  0  0  0  0  0  0  0  0  0  0  0
  -23.3070    5.3220    3.6455 C   0  0  0  0  0  0  0  0  0  0  0  0
  -23.0030    4.9912    5.0059 N   0  0  0  0  0  0  0  0  0  0  0  0
  -23.5557    2.4280    0.6159 H   0  0  0  0  0  0  0  0  0  0  0  0
  -23.9768    1.1504    1.8059 H   0  0  0  0  0  0  0  0  0  0  0  0
  -25.4438    6.2078   -0.3509 H   0  0  0  0  0  0  0  0  0  0  0  0
  -25.7044    5.5169   -2.6919 H   0  0  0  0  0  0  0  0  0  0  0  0
  -25.0212    4.2109   -4.5865 H   0  0  0  0  0  0  0  0  0  0  0  0
  -23.3886    3.4911   -4.5095 H   0  0  0  0  0  0  0  0  0  0  0  0
  -28.9720   -2.5978   -3.4653 H   0  0  0  0  0  0  0  0  0  0  0  0
  -25.2333   -1.3668   -1.1222 H   0  0  0  0  0  0  0  0  0  0  0  0
  -24.0862   -1.7563   -2.4838 H   0  0  0  0  0  0  0  0  0  0  0  0
  -23.7230   -0.4058   -1.3482 H   0  0  0  0  0  0  0  0  0  0  0  0
  -22.3972    3.2003    0.1926 H   0  0  0  0  0  0  0  0  0  0  0  0
  -25.3009    8.8045    5.0362 H   0  0  0  0  0  0  0  0  0  0  0  0
  -25.4816    7.0226    4.8877 H   0  0  0  0  0  0  0  0  0  0  0  0
  -24.2684    7.7413    6.0240 H   0  0  0  0  0  0  0  0  0  0  0  0
  -24.4371    1.3986   -3.5625 H   0  0  0  0  0  0  0  0  0  0  0  0
  -28.5853    1.0572   -5.6639 H   0  0  0  0  0  0  0  0  0  0  0  0
  -26.8530   -2.1640   -2.3147 H   0  0  0  0  0  0  0  0  0  0  0  0
  -22.6762    2.4979   -2.1397 H   0  0  0  0  0  0  0  0  0  0  0  0
  -24.0979    8.5973    3.1528 H   0  0  0  0  0  0  0  0  0  0  0  0
  -22.9023    3.9958    5.3009 H   0  0  0  0  0  0  0  0  0  0  0  0
  -22.8601    5.7118    5.7393 H   0  0  0  0  0  0  0  0  0  0  0  0
  2  3  1  0
  3  4  1  0
  4  5  2  0
  5  6  1  0
  9 10  2  0
  4 12  1  0
  1 15  1  0
  2 15  1  0
 14 15  2  0
  7 16  1  0
  6 16  2  0
  7 17  1  0
  8 18  1  0
 17 18  1  0
  9 19  1  0
  8 19  2  0
  9 20  1  0
 10 21  1  0
 21 22  2  0
  8 22  1  0
 22 23  1  0
 11 23  1  0
 18 24  2  0
 12 25  2  0
 16 25  1  0
  3 26  2  0
 26 27  1  0
 28 13  1  0
 27 28  1  0
 28 29  1  0
 29 30  1  6
 29 31  1  0
 29 32  1  0
 27 33  1  0
  2 33  2  0
 33 34  1  0
  1 35  1  0
  1 36  1  0
  5 37  1  0
  6 38  1  0
  7 39  1  6
  7 40  1  0
 10 41  1  0
 11 42  1  1
 11 43  1  0
 11 44  1  0
 12 45  1  0
 13 46  1  1
 13 47  1  0
 13 48  1  0
 17 49  1  0
 19 50  1  0
 21 51  1  0
 25 52  1  0
 28 53  1  6
 34 54  1  0
 34 55  1  0
M  END
