7AVI_S2Q_B_1101
     RDKit          3D

 47 49  0  0  0  0  0  0  0  0999 V2000
  -17.9630    0.3763  -39.6373 C   0  0  0  0  0  0  0  0  0  0  0  0
  -19.2682    0.0446  -39.8191 C   0  0  0  0  0  0  0  0  0  0  0  0
  -20.2890    0.8884  -39.3969 C   0  0  0  0  0  0  0  0  0  0  0  0
  -19.9195    2.1032  -38.7781 C   0  0  0  0  0  0  0  0  0  0  0  0
  -20.9593    3.0581  -38.3478 C   0  0  0  0  0  0  0  0  0  0  0  0
  -23.4263    2.8997  -38.8281 C   0  0  1  0  0  0  0  0  0  0  0  0
  -24.6335    3.2441  -37.9502 C   0  0  2  0  0  0  0  0  0  0  0  0
  -24.8313    0.9010  -39.5375 C   0  0  0  0  0  0  0  0  0  0  0  0
  -24.1400   -0.5357  -41.3582 C   0  0  0  0  0  0  0  0  0  0  0  0
  -20.3714   -2.0041  -40.9943 C   0  0  1  0  0  0  0  0  0  0  0  0
  -20.9040   -1.4388  -42.3151 C   0  0  1  0  0  0  0  0  0  0  0  0
  -17.1896   -0.5579  -40.1259 O   0  0  0  0  0  0  0  0  0  0  0  0
  -17.9201   -1.5113  -40.6430 N   0  0  0  0  0  0  0  0  0  0  0  0
  -19.2242   -1.1745  -40.4732 C   0  0  0  0  0  0  0  0  0  0  0  0
  -17.5785    1.5335  -39.0479 N   0  0  0  0  0  0  0  0  0  0  0  0
  -18.5401    2.4073  -38.6197 C   0  0  0  0  0  0  0  0  0  0  0  0
  -22.2661    2.5923  -37.9929 N   0  0  0  0  0  0  0  0  0  0  0  0
  -20.7050    4.2923  -38.3051 O   0  0  0  0  0  0  0  0  0  0  0  0
  -23.7083    1.7252  -39.7433 C   0  0  0  0  0  0  0  0  0  0  0  0
  -25.0457   -0.2180  -40.3455 C   0  0  0  0  0  0  0  0  0  0  0  0
  -22.7922    1.3861  -40.7546 C   0  0  0  0  0  0  0  0  0  0  0  0
  -23.0086    0.2615  -41.5651 C   0  0  0  0  0  0  0  0  0  0  0  0
  -21.4864   -2.1407  -39.9520 C   0  0  1  0  0  0  0  0  0  0  0  0
  -21.8386   -0.1945  -42.7982 S   0  0  1  0  0  6  0  0  0  0  0  0
  -20.4657   -0.2572  -42.1876 O   0  0  0  0  0  0  0  0  0  0  0  0
  -22.1788   -1.5459  -43.3634 O   0  0  0  0  0  0  0  0  0  0  0  0
  -21.8616    0.9794  -44.0679 N   0  0  0  0  0  0  0  0  0  0  0  0
  -21.3250    0.6371  -39.5629 H   0  0  0  0  0  0  0  0  0  0  0  0
  -23.2121    3.8061  -39.4385 H   0  0  0  0  0  0  0  0  0  0  0  0
  -24.8248    2.4532  -37.1952 H   0  0  0  0  0  0  0  0  0  0  0  0
  -25.5397    3.3737  -38.5797 H   0  0  0  0  0  0  0  0  0  0  0  0
  -24.4424    4.1966  -37.4117 H   0  0  0  0  0  0  0  0  0  0  0  0
  -25.5336    1.1108  -38.7415 H   0  0  0  0  0  0  0  0  0  0  0  0
  -24.3100   -1.4138  -41.9693 H   0  0  0  0  0  0  0  0  0  0  0  0
  -19.9858   -3.0273  -41.2006 H   0  0  0  0  0  0  0  0  0  0  0  0
  -20.7933   -0.3369  -42.3516 H   0  0  0  0  0  0  0  0  0  0  0  0
  -20.3459   -1.8790  -43.1691 H   0  0  0  0  0  0  0  0  0  0  0  0
  -21.9793   -1.6914  -42.4340 H   0  0  0  0  0  0  0  0  0  0  0  0
  -18.2358    3.3351  -38.1523 H   0  0  0  0  0  0  0  0  0  0  0  0
  -22.3342    1.7854  -37.3316 H   0  0  0  0  0  0  0  0  0  0  0  0
  -25.9096   -0.8484  -40.1774 H   0  0  0  0  0  0  0  0  0  0  0  0
  -21.9043    1.9883  -40.8998 H   0  0  0  0  0  0  0  0  0  0  0  0
  -22.4776   -2.0498  -40.4460 H   0  0  0  0  0  0  0  0  0  0  0  0
  -21.4337   -3.1377  -39.4650 H   0  0  0  0  0  0  0  0  0  0  0  0
  -21.4146   -1.3561  -39.1717 H   0  0  0  0  0  0  0  0  0  0  0  0
  -21.3050    1.7983  -43.7339 H   0  0  0  0  0  0  0  0  0  0  0  0
  -21.3379    0.5688  -44.8732 H   0  0  0  0  0  0  0  0  0  0  0  0
  1  2  1  0
  2  3  2  0
  3  4  1  0
  4  5  1  0
  6  7  1  0
 10 11  1  0
  1 12  1  0
 12 13  1  0
 10 14  1  0
  2 14  1  0
 13 14  2  0
  1 15  2  0
  4 16  2  0
 15 16  1  0
  6 17  1  0
  5 17  1  0
  5 18  2  0
  6 19  1  0
  8 19  2  0
  8 20  1  0
  9 20  2  0
 19 21  1  0
 21 22  2  0
  9 22  1  0
 10 23  1  0
 22 24  1  0
 24 25  2  0
 24 26  2  0
 24 27  1  6
  3 28  1  0
  6 29  1  6
  7 30  1  1
  7 31  1  0
  7 32  1  0
  8 33  1  0
  9 34  1  0
 10 35  1  6
 11 36  1  1
 11 37  1  0
 11 38  1  0
 16 39  1  0
 17 40  1  0
 20 41  1  0
 21 42  1  0
 23 43  1  6
 23 44  1  0
 23 45  1  0
 27 46  1  0
 27 47  1  0
M  END
