
     RDKit          3D

 26 27  0  0  0  0  0  0  0  0999 V2000
   68.8069  104.5474   90.3634 C   0  0  0  0  0  0  0  0  0  0  0  0
   69.6351  103.6144   90.9682 C   0  0  0  0  0  0  0  0  0  0  0  0
   69.3836  103.4122   92.3109 C   0  0  0  0  0  0  0  0  0  0  0  0
   68.4374  104.0722   93.0095 N   0  0  0  0  0  0  0  0  0  0  0  0
   67.8650  105.2397   91.0202 N   0  0  0  0  0  0  0  0  0  0  0  0
   67.7225  104.9823   92.3317 C   0  0  0  0  0  0  0  0  0  0  0  0
   70.2473  100.1587   91.4584 C   0  0  0  0  0  0  0  0  0  0  0  0
   66.6515  105.7158   93.0755 C   0  0  0  0  0  0  0  0  0  0  0  0
   69.0570   97.2839   88.1344 C   0  0  0  0  0  0  0  0  0  0  0  0
   69.0015   98.1389   89.3991 C   0  0  0  0  0  0  0  0  0  0  0  0
   69.8913  101.8738   88.0610 C   0  0  0  0  0  0  0  0  0  0  0  0
   70.6947  102.8916   90.1906 C   0  0  0  0  0  0  0  0  0  0  0  0
   69.9424  100.4473   90.0171 C   0  0  0  0  0  0  0  0  0  0  0  0
   69.4226   99.5606   89.1421 C   0  0  0  0  0  0  0  0  0  0  0  0
   68.9026  104.8456   89.0014 N   0  0  0  0  0  0  0  0  0  0  0  0
   70.2197  101.7087   89.4770 N   0  0  0  0  0  0  0  0  0  0  0  0
   67.8441   96.1917   83.1572 O   0  0  0  0  0  0  0  0  0  0  0  0
   65.4430   96.2626   87.0655 O   0  0  0  0  0  0  0  0  0  0  0  0
   65.7444   95.5822   84.5376 O   0  0  0  0  0  0  0  0  0  0  0  0
   67.9206   94.6379   85.2023 O   0  0  0  0  0  0  0  0  0  0  0  0
   66.5675   98.5355   87.4157 O   0  0  0  0  0  0  0  0  0  0  0  0
   67.8800   96.4992   88.0396 O   0  0  0  0  0  0  0  0  0  0  0  0
   67.4759   97.0722   85.6171 O   0  0  0  0  0  0  0  0  0  0  0  0
   67.2995   95.9437   84.5196 P   0  0  0  0  0  5  0  0  0  0  0  0
   66.7440   96.9900   87.0204 P   0  0  1  0  0  5  0  0  0  0  0  0
   69.2074  100.2547   87.5412 S   0  0  0  0  0  0  0  0  0  0  0  0
  1  2  4  0
  2  3  4  0
  3  4  4  0
  1  5  4  0
  5  6  4  0
  4  6  4  0
  6  8  1  0
  9 10  1  0
  2 12  1  0
  7 13  1  0
 10 14  1  0
 13 14  2  0
  1 15  1  0
 11 16  1  0
 12 16  1  0
 13 16  1  0
  9 22  1  0
 17 24  2  0
 20 24  1  0
 23 24  1  0
 19 24  1  0
 18 25  2  0
 25 23  1  0
 25 21  1  1
 22 25  1  0
 11 26  1  0
 14 26  1  0
M  END
