7ELT_TYM_A_401
     RDKit          3D

 37 41  0  0  0  0  0  0  0  0999 V2000
    8.4502   46.1669   17.0597 P   0  0  2  0  0  0  0  0  0  0  0  0
    6.9894   46.3839   17.3741 O   0  0  0  0  0  0  0  0  0  0  0  0
    9.2137   47.1421   16.1956 O   0  0  0  0  0  0  0  0  0  0  0  0
    8.6409   44.7348   16.5016 O   0  0  0  0  0  0  0  0  0  0  0  0
    9.6060   43.8753   16.9785 C   0  0  0  0  0  0  0  0  0  0  0  0
   10.7089   43.5913   15.9898 C   0  0  1  0  0  0  0  0  0  0  0  0
   10.1914   43.5288   14.6848 O   0  0  0  0  0  0  0  0  0  0  0  0
   10.8002   44.4653   13.8636 C   0  0  1  0  0  0  0  0  0  0  0  0
    9.8735   44.9686   12.8393 N   0  0  0  0  0  0  0  0  0  0  0  0
   10.1121   45.8982   11.9641 C   0  0  0  0  0  0  0  0  0  0  0  0
   11.1353   46.6862   11.6125 N   0  0  0  0  0  0  0  0  0  0  0  0
   11.0253   47.5696   10.6637 C   0  0  0  0  0  0  0  0  0  0  0  0
    9.9597   47.6915    9.9294 N   0  0  0  0  0  0  0  0  0  0  0  0
    8.8571   47.0143   10.1337 C   0  0  0  0  0  0  0  0  0  0  0  0
    7.7993   47.1985    9.3649 N   0  0  0  0  0  0  0  0  0  0  0  0
    8.8784   46.0371   11.2087 C   0  0  0  0  0  0  0  0  0  0  0  0
    8.0240   45.1866   11.7017 N   0  0  0  0  0  0  0  0  0  0  0  0
    8.6292   44.5540   12.6812 C   0  0  0  0  0  0  0  0  0  0  0  0
   11.4022   45.5430   14.7819 C   0  0  2  0  0  0  0  0  0  0  0  0
   12.4847   46.2594   14.2374 O   0  0  0  0  0  0  0  0  0  0  0  0
   11.7915   44.6878   15.9803 C   0  0  2  0  0  0  0  0  0  0  0  0
   13.1056   44.1957   15.8254 O   0  0  0  0  0  0  0  0  0  0  0  0
    8.5800   48.7059   18.3028 N   0  0  0  0  0  0  0  0  0  0  0  0
    9.4944   48.2352   19.3241 C   0  0  1  0  0  0  0  0  0  0  0  0
    9.1743   48.8994   20.6360 C   0  0  0  0  0  0  0  0  0  0  0  0
   10.1598   49.8795   21.1751 C   0  0  0  0  0  0  0  0  0  0  0  0
   11.0506   49.6069   22.2803 C   0  0  0  0  0  0  0  0  0  0  0  0
   11.7689   50.8464   22.5171 C   0  0  0  0  0  0  0  0  0  0  0  0
   11.2677   48.4952   23.0367 C   0  0  0  0  0  0  0  0  0  0  0  0
   10.3923   51.2005   20.8713 C   0  0  0  0  0  0  0  0  0  0  0  0
   11.3280   51.7170   21.6599 N   0  0  0  0  0  0  0  0  0  0  0  0
   12.7179   50.8245   23.5095 C   0  0  0  0  0  0  0  0  0  0  0  0
   12.2299   48.5506   24.0217 C   0  0  0  0  0  0  0  0  0  0  0  0
   12.9346   49.7017   24.2495 C   0  0  0  0  0  0  0  0  0  0  0  0
    9.3116   46.7615   19.5235 C   0  0  0  0  0  0  0  0  0  0  0  0
    9.2126   46.2764   20.5638 O   0  0  0  0  0  0  0  0  0  0  0  0
    9.2387   45.9345   18.3976 O   0  0  0  0  0  0  0  0  0  0  0  0
  1  2  1  1
  1  3  2  0
  1  4  1  0
  4  5  1  0
  6  5  1  1
  6  7  1  0
  7  8  1  0
  8  9  1  6
  9 10  1  0
 10 11  2  0
 11 12  1  0
 12 13  2  0
 13 14  1  0
 14 15  1  0
 10 16  1  0
 14 16  2  0
 16 17  1  0
  9 18  1  0
 17 18  2  0
  8 19  1  0
 19 20  1  6
  6 21  1  0
 19 21  1  0
 21 22  1  6
 24 23  1  6
 24 25  1  0
 25 26  1  0
 26 27  1  0
 27 28  1  0
 27 29  2  0
 26 30  2  0
 28 31  1  0
 30 31  1  0
 28 32  2  0
 29 33  1  0
 32 34  1  0
 33 34  2  0
 24 35  1  0
 35 36  2  0
  1 37  1  0
 35 37  1  0
M  END
