1GM8_SOX_B_1559
     RDKit          3D

 24 26  0  0  0  0  0  0  0  0999 V2000
   -0.2513   -3.9585   11.5455 O   0  0  0  0  0  0  0  0  0  0  0  0
   -0.6369   -4.4707   12.6222 C   0  0  0  0  0  0  0  0  0  0  0  0
   -1.5950   -4.2101   13.6594 N   0  0  0  0  0  0  0  0  0  0  0  0
   -2.4089   -3.5303   14.5704 C   0  0  1  0  0  0  0  0  0  0  0  0
   -3.0191   -2.3500   13.9010 C   0  0  0  0  0  0  0  0  0  0  0  0
   -3.0801   -1.2870   14.5408 O   0  0  0  0  0  0  0  0  0  0  0  0
   -3.5098   -2.4120   12.6060 O   0  0  0  0  0  0  0  0  0  0  0  0
   -3.4395   -4.4348   15.1720 C   0  0  2  0  0  0  0  0  0  0  0  0
   -4.5811   -4.7714   14.2504 C   0  0  0  0  0  0  0  0  0  0  0  0
   -3.8830   -3.9359   16.5257 C   0  0  0  0  0  0  0  0  0  0  0  0
   -2.3506   -5.8975   15.3721 S   0  0  1  0  0  0  0  0  0  0  0  0
   -1.7176   -5.6784   13.7206 C   0  0  2  0  0  0  0  0  0  0  0  0
   -0.2764   -5.7021   13.4430 C   0  0  2  0  0  0  0  0  0  0  0  0
    0.6304   -5.2630   14.4755 N   0  0  0  0  0  0  0  0  0  0  0  0
    1.9956   -5.6096   14.3852 C   0  0  0  0  0  0  0  0  0  0  0  0
    2.5156   -5.8092   13.2450 O   0  0  0  0  0  0  0  0  0  0  0  0
    2.8193   -5.7411   15.6012 C   0  0  0  0  0  0  0  0  0  0  0  0
    4.2393   -5.6734   15.1585 C   0  0  0  0  0  0  0  0  0  0  0  0
    4.8497   -6.6542   14.4233 C   0  0  0  0  0  0  0  0  0  0  0  0
    6.1866   -6.5309   14.0385 C   0  0  0  0  0  0  0  0  0  0  0  0
    6.9283   -5.4011   14.3978 C   0  0  0  0  0  0  0  0  0  0  0  0
    6.3040   -4.4185   15.1387 C   0  0  0  0  0  0  0  0  0  0  0  0
    4.9676   -4.5434   15.5224 C   0  0  0  0  0  0  0  0  0  0  0  0
   -1.1848   -5.5720   16.5352 O   0  0  0  0  0  0  0  0  0  0  0  0
  1  2  2  0
  2  3  1  0
  3  4  1  0
  4  5  1  6
  5  6  2  0
  5  7  1  0
  4  8  1  0
  8  9  1  6
  8 10  1  0
  8 11  1  0
 12  3  1  1
 11 12  1  0
  2 13  1  0
 12 13  1  0
 13 14  1  1
 14 15  1  0
 15 16  2  0
 15 17  1  0
 17 18  1  0
 18 19  2  0
 19 20  1  0
 20 21  2  0
 21 22  1  0
 18 23  1  0
 22 23  2  0
 11 24  1  1
M  END
$$$$
