1GM8_SOX_B_1559
     RDKit          3D

 24 26  0  0  0  0  0  0  0  0999 V2000
   -5.2645   19.3025    8.5582 O   0  0  0  0  0  0  0  0  0  0  0  0
   -4.9592   18.3567    7.7950 C   0  0  0  0  0  0  0  0  0  0  0  0
   -5.4379   17.7477    6.5860 N   0  0  0  0  0  0  0  0  0  0  0  0
   -6.3010   17.2665    5.5970 C   0  0  1  0  0  0  0  0  0  0  0  0
   -7.3832   18.2599    5.3614 C   0  0  0  0  0  0  0  0  0  0  0  0
   -7.0842   19.3177    4.7828 O   0  0  0  0  0  0  0  0  0  0  0  0
   -8.6896   18.0331    5.7659 O   0  0  0  0  0  0  0  0  0  0  0  0
   -5.5636   16.9245    4.3394 C   0  0  2  0  0  0  0  0  0  0  0  0
   -5.1377   18.1184    3.5277 C   0  0  0  0  0  0  0  0  0  0  0  0
   -6.3031   15.8815    3.5373 C   0  0  0  0  0  0  0  0  0  0  0  0
   -4.1005   16.1686    5.1475 S   0  0  1  0  0  0  0  0  0  0  0  0
   -4.0087   17.5262    6.2985 C   0  0  2  0  0  0  0  0  0  0  0  0
   -3.8647   17.2989    7.7415 C   0  0  2  0  0  0  0  0  0  0  0  0
   -4.4222   16.0945    8.3072 N   0  0  0  0  0  0  0  0  0  0  0  0
   -4.0315   15.6989    9.6045 C   0  0  0  0  0  0  0  0  0  0  0  0
   -4.3992   16.3873   10.6051 O   0  0  0  0  0  0  0  0  0  0  0  0
   -3.2023   14.4961    9.8052 C   0  0  0  0  0  0  0  0  0  0  0  0
   -1.8490   14.9772   10.1980 C   0  0  0  0  0  0  0  0  0  0  0  0
   -0.7802   15.0093    9.3426 C   0  0  0  0  0  0  0  0  0  0  0  0
    0.4652   15.4726    9.7728 C   0  0  0  0  0  0  0  0  0  0  0  0
    0.6440   15.9132   11.0880 C   0  0  0  0  0  0  0  0  0  0  0  0
   -0.4392   15.8768   11.9419 C   0  0  0  0  0  0  0  0  0  0  0  0
   -1.6833   15.4134   11.5102 C   0  0  0  0  0  0  0  0  0  0  0  0
   -4.5544   14.7400    5.9030 O   0  0  0  0  0  0  0  0  0  0  0  0
  1  2  2  0
  2  3  1  0
  3  4  1  0
  4  5  1  6
  5  6  2  0
  5  7  1  0
  4  8  1  0
  8  9  1  6
  8 10  1  0
  8 11  1  0
 12  3  1  1
 11 12  1  0
  2 13  1  0
 12 13  1  0
 13 14  1  6
 14 15  1  0
 15 16  2  0
 15 17  1  0
 17 18  1  0
 18 19  2  0
 19 20  1  0
 20 21  2  0
 21 22  1  0
 18 23  1  0
 22 23  2  0
 11 24  1  1
M  END
$$$$
