1GM8_SOX_B_1559
     RDKit          3D

 24 26  0  0  0  0  0  0  0  0999 V2000
   11.2903   32.2650   20.5858 O   0  0  0  0  0  0  0  0  0  0  0  0
   10.2312   32.5775   19.9935 C   0  0  0  0  0  0  0  0  0  0  0  0
    9.2216   33.5968   20.0527 N   0  0  0  0  0  0  0  0  0  0  0  0
    8.3296   34.5501   20.5527 C   0  0  1  0  0  0  0  0  0  0  0  0
    9.0061   35.3530   21.6069 C   0  0  0  0  0  0  0  0  0  0  0  0
   10.1334   35.8099   21.3547 O   0  0  0  0  0  0  0  0  0  0  0  0
    8.4162   35.5957   22.8376 O   0  0  0  0  0  0  0  0  0  0  0  0
    7.7691   35.4080   19.4608 C   0  0  2  0  0  0  0  0  0  0  0  0
    8.7288   36.4386   18.9293 C   0  0  0  0  0  0  0  0  0  0  0  0
    6.4249   35.9762   19.8462 C   0  0  0  0  0  0  0  0  0  0  0  0
    7.5497   34.0684   18.2268 S   0  0  1  0  0  0  0  0  0  0  0  0
    9.1786   33.4414   18.5869 C   0  0  2  0  0  0  0  0  0  0  0  0
    9.4117   32.0144   18.8396 C   0  0  2  0  0  0  0  0  0  0  0  0
    8.3473   31.2367   19.4259 N   0  0  0  0  0  0  0  0  0  0  0  0
    8.5568   29.8639   19.6784 C   0  0  0  0  0  0  0  0  0  0  0  0
    8.9415   29.4917   20.8290 O   0  0  0  0  0  0  0  0  0  0  0  0
    8.3329   28.8626   18.6193 C   0  0  0  0  0  0  0  0  0  0  0  0
    9.4026   27.8384   18.7738 C   0  0  0  0  0  0  0  0  0  0  0  0
    9.2344   26.6675   19.4634 C   0  0  0  0  0  0  0  0  0  0  0  0
   10.2787   25.7463   19.5720 C   0  0  0  0  0  0  0  0  0  0  0  0
   11.5180   26.0034   18.9773 C   0  0  0  0  0  0  0  0  0  0  0  0
   11.6772   27.1862   18.2847 C   0  0  0  0  0  0  0  0  0  0  0  0
   10.6324   28.1058   18.1770 C   0  0  0  0  0  0  0  0  0  0  0  0
    6.3480   33.0187   18.7484 O   0  0  0  0  0  0  0  0  0  0  0  0
  1  2  2  0
  2  3  1  0
  3  4  1  0
  4  5  1  1
  5  6  2  0
  5  7  1  0
  4  8  1  0
  8  9  1  6
  8 10  1  0
  8 11  1  0
 12  3  1  1
 11 12  1  0
  2 13  1  0
 12 13  1  0
 13 14  1  1
 14 15  1  0
 15 16  2  0
 15 17  1  0
 17 18  1  0
 18 19  2  0
 19 20  1  0
 20 21  2  0
 21 22  1  0
 18 23  1  0
 22 23  2  0
 11 24  1  1
M  END
$$$$
