1GM8_SOX_B_1559
     RDKit          3D

 24 26  0  0  0  0  0  0  0  0999 V2000
   10.1047    0.2521   32.9174 O   0  0  0  0  0  0  0  0  0  0  0  0
    9.3649   -0.4761   32.2153 C   0  0  0  0  0  0  0  0  0  0  0  0
    9.3311   -1.8242   31.7222 N   0  0  0  0  0  0  0  0  0  0  0  0
    9.7450   -3.0624   31.2220 C   0  0  1  0  0  0  0  0  0  0  0  0
   10.9631   -3.5064   31.9516 C   0  0  0  0  0  0  0  0  0  0  0  0
   10.9401   -3.4742   33.1932 O   0  0  0  0  0  0  0  0  0  0  0  0
   12.0980   -3.9457   31.2878 O   0  0  0  0  0  0  0  0  0  0  0  0
    8.6466   -4.0780   31.2843 C   0  0  2  0  0  0  0  0  0  0  0  0
    8.3766   -4.6136   32.6649 C   0  0  0  0  0  0  0  0  0  0  0  0
    8.8376   -5.1559   30.2450 C   0  0  0  0  0  0  0  0  0  0  0  0
    7.2873   -2.9556   30.7765 S   0  0  1  0  0  0  0  0  0  0  0  0
    7.8725   -1.7038   31.9021 C   0  0  2  0  0  0  0  0  0  0  0  0
    8.0437   -0.3097   31.4758 C   0  0  2  0  0  0  0  0  0  0  0  0
    8.3700   -0.0476   30.0951 N   0  0  0  0  0  0  0  0  0  0  0  0
    8.0203    1.1975   29.5299 C   0  0  0  0  0  0  0  0  0  0  0  0
    7.5697    2.1187   30.2774 O   0  0  0  0  0  0  0  0  0  0  0  0
    8.1738    1.4352   28.0827 C   0  0  0  0  0  0  0  0  0  0  0  0
    7.8079    2.8593   27.8478 C   0  0  0  0  0  0  0  0  0  0  0  0
    7.5421    3.3771   26.6083 C   0  0  0  0  0  0  0  0  0  0  0  0
    7.2039    4.7235   26.4543 C   0  0  0  0  0  0  0  0  0  0  0  0
    7.1304    5.5694   27.5655 C   0  0  0  0  0  0  0  0  0  0  0  0
    7.4000    5.0378   28.8100 C   0  0  0  0  0  0  0  0  0  0  0  0
    7.7379    3.6919   28.9621 C   0  0  0  0  0  0  0  0  0  0  0  0
    7.5039   -2.5041   29.1743 O   0  0  0  0  0  0  0  0  0  0  0  0
  1  2  2  0
  2  3  1  0
  3  4  1  0
  4  5  1  1
  5  6  2  0
  5  7  1  0
  4  8  1  0
  8  9  1  1
  8 10  1  0
  8 11  1  0
 12  3  1  6
 11 12  1  0
  2 13  1  0
 12 13  1  0
 13 14  1  6
 14 15  1  0
 15 16  2  0
 15 17  1  0
 17 18  1  0
 18 19  2  0
 19 20  1  0
 20 21  2  0
 21 22  1  0
 18 23  1  0
 22 23  2  0
 11 24  1  6
M  END
$$$$
