1GM8_SOX_B_1559
     RDKit          3D

 24 26  0  0  0  0  0  0  0  0999 V2000
    8.9095   -8.7173   10.8133 O   0  0  0  0  0  0  0  0  0  0  0  0
    8.2377   -9.1175   11.7925 C   0  0  0  0  0  0  0  0  0  0  0  0
    6.8644   -9.3665   12.1300 N   0  0  0  0  0  0  0  0  0  0  0  0
    5.4727   -9.2476   12.1904 C   0  0  1  0  0  0  0  0  0  0  0  0
    4.9428   -8.9641   10.8294 C   0  0  0  0  0  0  0  0  0  0  0  0
    4.1123   -8.0481   10.7091 O   0  0  0  0  0  0  0  0  0  0  0  0
    5.3486   -9.6860    9.7177 O   0  0  0  0  0  0  0  0  0  0  0  0
    4.8412  -10.4596   12.8021 C   0  0  2  0  0  0  0  0  0  0  0  0
    4.7993  -11.6601   11.8951 C   0  0  0  0  0  0  0  0  0  0  0  0
    3.5073  -10.1266   13.4253 C   0  0  0  0  0  0  0  0  0  0  0  0
    6.0965  -10.7162   14.1150 S   0  0  1  0  0  0  0  0  0  0  0  0
    7.4102  -10.4749   12.9350 C   0  0  2  0  0  0  0  0  0  0  0  0
    8.5354   -9.5747   13.2146 C   0  0  2  0  0  0  0  0  0  0  0  0
    8.3097   -8.4374   14.0730 N   0  0  0  0  0  0  0  0  0  0  0  0
    9.4100   -7.8334   14.7184 C   0  0  0  0  0  0  0  0  0  0  0  0
   10.5848   -8.2389   14.4616 O   0  0  0  0  0  0  0  0  0  0  0  0
    9.2057   -6.7389   15.6853 C   0  0  0  0  0  0  0  0  0  0  0  0
   10.5442   -6.1323   15.9251 C   0  0  0  0  0  0  0  0  0  0  0  0
   10.8018   -4.7937   15.7962 C   0  0  0  0  0  0  0  0  0  0  0  0
   12.0808   -4.2862   16.0358 C   0  0  0  0  0  0  0  0  0  0  0  0
   13.1243   -5.1377   16.4125 C   0  0  0  0  0  0  0  0  0  0  0  0
   12.8543   -6.4849   16.5397 C   0  0  0  0  0  0  0  0  0  0  0  0
   11.5753   -6.9904   16.2998 C   0  0  0  0  0  0  0  0  0  0  0  0
    6.0135   -9.4571   15.2221 O   0  0  0  0  0  0  0  0  0  0  0  0
  1  2  2  0
  2  3  1  0
  3  4  1  0
  4  5  1  6
  5  6  2  0
  5  7  1  0
  4  8  1  0
  8  9  1  6
  8 10  1  0
  8 11  1  0
 12  3  1  6
 11 12  1  0
  2 13  1  0
 12 13  1  0
 13 14  1  1
 14 15  1  0
 15 16  2  0
 15 17  1  0
 17 18  1  0
 18 19  2  0
 19 20  1  0
 20 21  2  0
 21 22  1  0
 18 23  1  0
 22 23  2  0
 11 24  1  1
M  END
$$$$
