1GM8_SOX_B_1559
     RDKit          3D

 24 26  0  0  0  0  0  0  0  0999 V2000
   11.9226    1.0621    1.4280 O   0  0  0  0  0  0  0  0  0  0  0  0
   12.6259    0.0346    1.5688 C   0  0  0  0  0  0  0  0  0  0  0  0
   12.4499   -1.3675    1.8235 N   0  0  0  0  0  0  0  0  0  0  0  0
   11.9402   -2.5689    2.3249 C   0  0  1  0  0  0  0  0  0  0  0  0
   10.4537   -2.5323    2.2758 C   0  0  0  0  0  0  0  0  0  0  0  0
    9.9129   -2.3973    1.1656 O   0  0  0  0  0  0  0  0  0  0  0  0
    9.6777   -2.6433    3.4190 O   0  0  0  0  0  0  0  0  0  0  0  0
   12.5012   -3.7523    1.5990 C   0  0  2  0  0  0  0  0  0  0  0  0
   11.9250   -3.9655    0.2249 C   0  0  0  0  0  0  0  0  0  0  0  0
   12.4737   -4.9889    2.4640 C   0  0  0  0  0  0  0  0  0  0  0  0
   14.2196   -3.1250    1.4618 S   0  0  1  0  0  0  0  0  0  0  0  0
   13.6182   -1.5310    0.9386 C   0  0  2  0  0  0  0  0  0  0  0  0
   14.1141   -0.2888    1.5432 C   0  0  2  0  0  0  0  0  0  0  0  0
   14.5565   -0.3207    2.9160 N   0  0  0  0  0  0  0  0  0  0  0  0
   15.5715    0.5673    3.3326 C   0  0  0  0  0  0  0  0  0  0  0  0
   16.1831    1.2669    2.4684 O   0  0  0  0  0  0  0  0  0  0  0  0
   15.9253    0.6877    4.7590 C   0  0  0  0  0  0  0  0  0  0  0  0
   16.8509    1.8490    4.8677 C   0  0  0  0  0  0  0  0  0  0  0  0
   18.2081    1.7244    4.9994 C   0  0  0  0  0  0  0  0  0  0  0  0
   19.0229    2.8547    5.0967 C   0  0  0  0  0  0  0  0  0  0  0  0
   18.4665    4.1372    5.0612 C   0  0  0  0  0  0  0  0  0  0  0  0
   17.0979    4.2518    4.9282 C   0  0  0  0  0  0  0  0  0  0  0  0
   16.2849    3.1211    4.8311 C   0  0  0  0  0  0  0  0  0  0  0  0
   14.9146   -3.0591    2.9884 O   0  0  0  0  0  0  0  0  0  0  0  0
  1  2  2  0
  2  3  1  0
  3  4  1  0
  4  5  1  6
  5  6  2  0
  5  7  1  0
  4  8  1  0
  8  9  1  6
  8 10  1  0
  8 11  1  0
 12  3  1  1
 11 12  1  0
  2 13  1  0
 12 13  1  0
 13 14  1  1
 14 15  1  0
 15 16  2  0
 15 17  1  0
 17 18  1  0
 18 19  2  0
 19 20  1  0
 20 21  2  0
 21 22  1  0
 18 23  1  0
 22 23  2  0
 11 24  1  1
M  END
$$$$
