1GM8_SOX_B_1559
     RDKit          3D

 24 26  0  0  0  0  0  0  0  0999 V2000
    4.2585   -7.5843    2.9679 O   0  0  0  0  0  0  0  0  0  0  0  0
    3.4762   -7.1263    2.1027 C   0  0  0  0  0  0  0  0  0  0  0  0
    2.0674   -7.1007    1.8265 N   0  0  0  0  0  0  0  0  0  0  0  0
    0.7279   -7.4909    1.7370 C   0  0  1  0  0  0  0  0  0  0  0  0
    0.3280   -8.1731    2.9972 C   0  0  0  0  0  0  0  0  0  0  0  0
    0.6204   -7.6241    4.0725 O   0  0  0  0  0  0  0  0  0  0  0  0
   -0.3494   -9.3825    2.9950 O   0  0  0  0  0  0  0  0  0  0  0  0
   -0.1641   -6.3325    1.4134 C   0  0  2  0  0  0  0  0  0  0  0  0
   -0.4093   -5.3987    2.5682 C   0  0  0  0  0  0  0  0  0  0  0  0
   -1.4285   -6.7898    0.7274 C   0  0  0  0  0  0  0  0  0  0  0  0
    0.9528   -5.5352    0.1960 S   0  0  1  0  0  0  0  0  0  0  0  0
    2.3394   -5.7526    1.2944 C   0  0  2  0  0  0  0  0  0  0  0  0
    3.6108   -6.3134    0.8217 C   0  0  2  0  0  0  0  0  0  0  0  0
    3.5836   -7.2535   -0.2723 N   0  0  0  0  0  0  0  0  0  0  0  0
    4.6572   -7.2745   -1.1883 C   0  0  0  0  0  0  0  0  0  0  0  0
    5.6641   -6.5286   -0.9881 O   0  0  0  0  0  0  0  0  0  0  0  0
    4.6179   -8.1533   -2.3718 C   0  0  0  0  0  0  0  0  0  0  0  0
    5.8842   -7.9138   -3.1175 C   0  0  0  0  0  0  0  0  0  0  0  0
    7.1009   -8.3975   -2.7166 C   0  0  0  0  0  0  0  0  0  0  0  0
    8.2535   -8.1374   -3.4613 C   0  0  0  0  0  0  0  0  0  0  0  0
    8.1861   -7.3767   -4.6328 C   0  0  0  0  0  0  0  0  0  0  0  0
    6.9554   -6.8940   -5.0282 C   0  0  0  0  0  0  0  0  0  0  0  0
    5.8043   -7.1549   -4.2826 C   0  0  0  0  0  0  0  0  0  0  0  0
    1.0790   -6.5065   -1.1673 O   0  0  0  0  0  0  0  0  0  0  0  0
  1  2  2  0
  2  3  1  0
  3  4  1  0
  4  5  1  1
  5  6  2  0
  5  7  1  0
  4  8  1  0
  8  9  1  1
  8 10  1  0
  8 11  1  0
 12  3  1  1
 11 12  1  0
  2 13  1  0
 12 13  1  0
 13 14  1  6
 14 15  1  0
 15 16  2  0
 15 17  1  0
 17 18  1  0
 18 19  2  0
 19 20  1  0
 20 21  2  0
 21 22  1  0
 18 23  1  0
 22 23  2  0
 11 24  1  6
M  END
$$$$
