1GM8_SOX_B_1559
     RDKit          3D

 24 26  0  0  0  0  0  0  0  0999 V2000
    5.2413   28.9377   21.6978 O   0  0  0  0  0  0  0  0  0  0  0  0
    4.3229   28.2312   21.2207 C   0  0  0  0  0  0  0  0  0  0  0  0
    3.1819   27.4900   21.6794 N   0  0  0  0  0  0  0  0  0  0  0  0
    2.3522   26.6926   22.4734 C   0  0  1  0  0  0  0  0  0  0  0  0
    2.4758   27.1149   23.8946 C   0  0  0  0  0  0  0  0  0  0  0  0
    2.8426   26.2649   24.7228 O   0  0  0  0  0  0  0  0  0  0  0  0
    2.1960   28.4096   24.3034 O   0  0  0  0  0  0  0  0  0  0  0  0
    0.9336   26.7246   21.9952 C   0  0  2  0  0  0  0  0  0  0  0  0
    0.1974   27.9950   22.3264 C   0  0  0  0  0  0  0  0  0  0  0  0
    0.1913   25.4737   22.3985 C   0  0  0  0  0  0  0  0  0  0  0  0
    1.3109   26.6750   20.2006 S   0  0  1  0  0  0  0  0  0  0  0  0
    2.5685   27.9204   20.4093 C   0  0  2  0  0  0  0  0  0  0  0  0
    3.9088   27.7601   19.8327 C   0  0  2  0  0  0  0  0  0  0  0  0
    4.4337   26.4258   19.6724 N   0  0  0  0  0  0  0  0  0  0  0  0
    5.1959   26.1196   18.5247 C   0  0  0  0  0  0  0  0  0  0  0  0
    4.6159   25.6614   17.4932 O   0  0  0  0  0  0  0  0  0  0  0  0
    6.6558   26.3273   18.5150 C   0  0  0  0  0  0  0  0  0  0  0  0
    7.2632   25.0350   18.0931 C   0  0  0  0  0  0  0  0  0  0  0  0
    8.4902   24.6014   18.5189 C   0  0  0  0  0  0  0  0  0  0  0  0
    9.0051   23.3775   18.0858 C   0  0  0  0  0  0  0  0  0  0  0  0
    8.2753   22.5704   17.2073 C   0  0  0  0  0  0  0  0  0  0  0  0
    7.0400   23.0163   16.7841 C   0  0  0  0  0  0  0  0  0  0  0  0
    6.5269   24.2400   17.2180 C   0  0  0  0  0  0  0  0  0  0  0  0
    1.9707   25.1819   19.8088 O   0  0  0  0  0  0  0  0  0  0  0  0
  1  2  2  0
  2  3  1  0
  3  4  1  0
  4  5  1  1
  5  6  2  0
  5  7  1  0
  4  8  1  0
  8  9  1  6
  8 10  1  0
  8 11  1  0
 12  3  1  1
 11 12  1  0
  2 13  1  0
 12 13  1  0
 13 14  1  1
 14 15  1  0
 15 16  2  0
 15 17  1  0
 17 18  1  0
 18 19  2  0
 19 20  1  0
 20 21  2  0
 21 22  1  0
 18 23  1  0
 22 23  2  0
 11 24  1  1
M  END
$$$$
