7A9E_R4W_A_405
     RDKit          3D

 14 13  0  0  0  0  0  0  0  0999 V2000
    0.4032   10.3441   -4.5032 C   0  0  0  0  0  0  0  0  0  0  0  0
    0.8163   11.4685   -8.4508 C   0  0  0  0  0  0  0  0  0  0  0  0
   -0.6913    9.3630   -7.7642 O   0  0  0  0  0  0  0  0  0  0  0  0
    1.0515   10.1591   -5.8683 C   0  0  0  0  0  0  0  0  0  0  0  0
   -1.1638   11.4884   -6.6374 O   0  0  0  0  0  0  0  0  0  0  0  0
   -0.0764   10.6017   -7.1791 S   0  0  1  0  0  6  0  0  0  0  0  0
    0.1129   11.4051   -4.3575 H   0  0  0  0  0  0  0  0  0  0  0  0
    1.1243   10.0625   -3.7076 H   0  0  0  0  0  0  0  0  0  0  0  0
   -0.4972    9.6970   -4.4127 H   0  0  0  0  0  0  0  0  0  0  0  0
    0.1197   11.7460   -9.2682 H   0  0  0  0  0  0  0  0  0  0  0  0
    1.2702   12.3855   -8.0245 H   0  0  0  0  0  0  0  0  0  0  0  0
    1.6189   10.8169   -8.8561 H   0  0  0  0  0  0  0  0  0  0  0  0
    1.3511    9.0980   -5.9930 H   0  0  0  0  0  0  0  0  0  0  0  0
    1.9587   10.7989   -5.9381 H   0  0  0  0  0  0  0  0  0  0  0  0
  1  4  1  0
  3  6  2  0
  6  4  1  1
  2  6  1  0
  5  6  2  0
  1  7  1  0
  1  8  1  0
  1  9  1  0
  2 10  1  0
  2 11  1  0
  2 12  1  0
  4 13  1  0
  4 14  1  0
M  END
