
     RDKit          3D

 33 37  0  0  0  0  0  0  0  0999 V2000
   31.2800   -0.1638   28.1385 C   0  0  2  0  0  0  0  0  0  0  0  0
   31.3621   -1.6348   27.6486 C   0  0  1  0  0  0  0  0  0  0  0  0
   30.1926   -2.3722   28.0804 O   0  0  0  0  0  0  0  0  0  0  0  0
   28.9748   -1.8799   27.6922 C   0  0  0  0  0  0  0  0  0  0  0  0
   27.9376   -2.8169   27.7473 C   0  0  0  0  0  0  0  0  0  0  0  0
   26.6379   -2.4576   27.3939 C   0  0  0  0  0  0  0  0  0  0  0  0
   26.3815   -1.1533   26.9923 C   0  0  0  0  0  0  0  0  0  0  0  0
   25.1264   -0.7494   26.6462 O   0  0  0  0  0  0  0  0  0  0  0  0
   27.4014   -0.2094   26.9401 C   0  0  0  0  0  0  0  0  0  0  0  0
   28.7083   -0.5614   27.3001 C   0  0  0  0  0  0  0  0  0  0  0  0
   29.9356    0.7282   27.2684 S   0  0  0  0  0  0  0  0  0  0  0  0
   32.5617    0.6619   28.2129 C   0  0  0  0  0  0  0  0  0  0  0  0
   33.2341    0.9540   29.4087 C   0  0  0  0  0  0  0  0  0  0  0  0
   34.4002    1.7245   29.4086 C   0  0  0  0  0  0  0  0  0  0  0  0
   34.8948    2.2324   28.2165 C   0  0  0  0  0  0  0  0  0  0  0  0
   36.0300    2.9854   28.2635 O   0  0  0  0  0  0  0  0  0  0  0  0
   34.2447    1.9801   27.0183 C   0  0  0  0  0  0  0  0  0  0  0  0
   33.0863    1.2006   27.0191 C   0  0  0  0  0  0  0  0  0  0  0  0
   31.7102   -2.0362   26.2136 C   0  0  0  0  0  0  0  0  0  0  0  0
   31.4233   -1.1216   25.1838 C   0  0  0  0  0  0  0  0  0  0  0  0
   31.6597   -1.4416   23.8448 C   0  0  0  0  0  0  0  0  0  0  0  0
   32.1941   -2.6788   23.4948 C   0  0  0  0  0  0  0  0  0  0  0  0
   32.4955   -3.5902   24.5003 C   0  0  0  0  0  0  0  0  0  0  0  0
   32.2545   -3.2727   25.8447 C   0  0  0  0  0  0  0  0  0  0  0  0
   32.3426   -2.8836   22.1528 O   0  0  0  0  0  0  0  0  0  0  0  0
   33.6708   -3.1085   21.6683 C   0  0  0  0  0  0  0  0  0  0  0  0
   33.6265   -4.1400   20.5254 C   0  0  0  0  0  0  0  0  0  0  0  0
   33.2311   -3.5810   19.2153 N   0  0  0  0  0  0  0  0  0  0  0  0
   31.8061   -3.2219   19.2133 C   0  0  0  0  0  0  0  0  0  0  0  0
   31.3465   -2.7908   17.8219 C   0  0  0  0  0  0  0  0  0  0  0  0
   31.5019   -3.9127   16.7967 C   0  0  0  0  0  0  0  0  0  0  0  0
   32.4692   -4.9940   17.2650 C   0  0  0  0  0  0  0  0  0  0  0  0
   33.6343   -4.4129   18.0702 C   0  0  0  0  0  0  0  0  0  0  0  0
  1  2  1  0
  2  3  1  0
  3  4  1  0
  4  5  4  0
  5  6  4  0
  6  7  4  0
  7  8  1  0
  7  9  4  0
  4 10  4  0
  9 10  4  0
  1 11  1  0
 10 11  1  0
  1 12  1  6
 12 13  4  0
 13 14  4  0
 14 15  4  0
 15 16  1  0
 15 17  4  0
 12 18  4  0
 17 18  4  0
  2 19  1  6
 19 20  4  0
 20 21  4  0
 21 22  4  0
 22 23  4  0
 19 24  4  0
 23 24  4  0
 22 25  1  0
 25 26  1  0
 26 27  1  0
 27 28  1  0
 28 29  1  0
 29 30  1  0
 30 31  1  0
 31 32  1  0
 28 33  1  0
 32 33  1  0
M  END
