8FLV_ZB9_A_701
     RDKit          3D

 51 54  0  0  0  0  0  0  0  0999 V2000
  -17.9133    9.0359  -17.7296 N   0  0  0  0  0  0  0  0  0  0  0  0
  -17.5168    5.0655  -18.4420 N   0  0  0  0  0  4  0  0  0  0  0  0
  -17.6975    6.4171  -18.3465 C   0  0  0  0  0  0  0  0  0  0  0  0
  -16.9874    5.6317  -16.3351 C   0  0  0  0  0  0  0  0  0  0  0  0
  -17.0907    4.5996  -17.2181 C   0  0  0  0  0  0  0  0  0  0  0  0
  -18.2088    8.6558  -14.4387 C   0  0  0  0  0  0  0  0  0  0  0  0
  -16.0180    9.4986  -15.2425 C   0  0  1  0  0  0  0  0  0  0  0  0
  -14.4548   11.3755  -15.8500 C   0  0  0  0  0  0  0  0  0  0  0  0
  -12.9767    9.1456  -13.7655 C   0  0  0  0  0  0  0  0  0  0  0  0
  -12.8506    7.5842  -10.4574 C   0  0  0  0  0  0  0  0  0  0  0  0
  -13.6043    6.4947   -8.4755 C   0  0  0  0  0  0  0  0  0  0  0  0
  -11.8579    6.6260  -10.5975 C   0  0  0  0  0  0  0  0  0  0  0  0
  -18.1649    8.5156  -18.9372 C   0  0  0  0  0  0  0  0  0  0  0  0
  -13.3263   10.3635  -15.8816 C   0  0  0  0  0  0  0  0  0  0  0  0
  -14.8225    8.5389  -15.2717 C   0  0  0  0  0  0  0  0  0  0  0  0
  -13.7006    8.4499  -12.6263 C   0  0  0  0  0  0  0  0  0  0  0  0
  -13.7424    7.5174   -9.3937 C   0  0  0  0  0  0  0  0  0  0  0  0
  -12.6255    5.5279   -8.5783 C   0  0  0  0  0  0  0  0  0  0  0  0
  -11.7615    5.6254   -9.6485 C   0  0  0  0  0  0  0  0  0  0  0  0
  -17.5148    8.2052  -16.7363 C   0  0  0  0  0  0  0  0  0  0  0  0
  -17.3777    6.8204  -17.0292 C   0  0  0  0  0  0  0  0  0  0  0  0
  -15.7825   10.6898  -16.1676 C   0  0  0  0  0  0  0  0  0  0  0  0
  -18.0966    7.2470  -19.3238 N   0  0  0  0  0  0  0  0  0  0  0  0
  -17.2672    8.7858  -15.5387 N   0  0  0  0  0  0  0  0  0  0  0  0
  -13.6255    9.2986  -14.9228 N   0  0  0  0  0  0  0  0  0  0  0  0
  -12.9613    8.5739  -11.3875 N   0  0  0  0  0  0  0  0  0  0  0  0
  -11.8048    9.5007  -13.6298 O   0  0  0  0  0  0  0  0  0  0  0  0
  -10.5129    4.4345   -9.8149 Cl  0  0  0  0  0  0  0  0  0  0  0  0
  -14.6985    6.4104   -7.1298 Cl  0  0  0  0  0  0  0  0  0  0  0  0
  -17.6656    4.5191  -19.2474 H   0  0  0  0  0  0  0  0  0  0  0  0
  -16.6846    5.5682  -15.3506 H   0  0  0  0  0  0  0  0  0  0  0  0
  -16.8805    3.6128  -17.0015 H   0  0  0  0  0  0  0  0  0  0  0  0
  -19.0746    8.1225  -14.7715 H   0  0  0  0  0  0  0  0  0  0  0  0
  -18.4976    9.6287  -14.0997 H   0  0  0  0  0  0  0  0  0  0  0  0
  -17.7472    8.1206  -13.6354 H   0  0  0  0  0  0  0  0  0  0  0  0
  -16.1176    9.8945  -14.2536 H   0  0  0  0  0  0  0  0  0  0  0  0
  -14.2672   12.1379  -16.5770 H   0  0  0  0  0  0  0  0  0  0  0  0
  -14.5092   11.8097  -14.8736 H   0  0  0  0  0  0  0  0  0  0  0  0
  -11.2035    6.6593  -11.3949 H   0  0  0  0  0  0  0  0  0  0  0  0
  -18.4499    9.1901  -19.6643 H   0  0  0  0  0  0  0  0  0  0  0  0
  -12.4067   10.8409  -15.6144 H   0  0  0  0  0  0  0  0  0  0  0  0
  -13.2314    9.9532  -16.8651 H   0  0  0  0  0  0  0  0  0  0  0  0
  -14.7153    8.1220  -16.2514 H   0  0  0  0  0  0  0  0  0  0  0  0
  -14.9709    7.7389  -14.5767 H   0  0  0  0  0  0  0  0  0  0  0  0
  -13.8124    7.4128  -12.8646 H   0  0  0  0  0  0  0  0  0  0  0  0
  -14.6577    8.9112  -12.4992 H   0  0  0  0  0  0  0  0  0  0  0  0
  -14.4931    8.2182   -9.2918 H   0  0  0  0  0  0  0  0  0  0  0  0
  -12.5438    4.7668   -7.8861 H   0  0  0  0  0  0  0  0  0  0  0  0
  -16.5787   11.3934  -16.0417 H   0  0  0  0  0  0  0  0  0  0  0  0
  -15.7508   10.3364  -17.1770 H   0  0  0  0  0  0  0  0  0  0  0  0
  -12.5091    9.4292  -11.2053 H   0  0  0  0  0  0  0  0  0  0  0  0
  2  3  4  0
  2  5  4  0
  4  5  4  0
 10 12  4  0
  1 13  4  0
  8 14  1  0
  7 15  1  0
  9 16  1  0
 10 17  4  0
 11 17  4  0
 11 18  4  0
 12 19  4  0
 18 19  4  0
  1 20  4  0
 20 21  4  0
  3 21  4  0
  4 21  4  0
  7 22  1  0
  8 22  1  0
 13 23  4  0
  3 23  4  0
  6 24  1  0
 20 24  1  0
  7 24  1  0
 15 25  1  0
 14 25  1  0
  9 25  1  0
 16 26  1  0
 10 26  1  0
  9 27  2  0
 19 28  1  0
 11 29  1  0
  2 30  1  0
  4 31  1  0
  5 32  1  0
  6 33  1  0
  6 34  1  0
  6 35  1  0
  7 36  1  1
  8 37  1  0
  8 38  1  0
 12 39  1  0
 13 40  1  0
 14 41  1  0
 14 42  1  0
 15 43  1  0
 15 44  1  0
 16 45  1  0
 16 46  1  0
 17 47  1  0
 18 48  1  0
 22 49  1  0
 22 50  1  0
 26 51  1  0
M  CHG  1   2   1
M  END
