7QF4_RBF_AAA_201
     RDKit          3D

 47 49  0  0  0  0  0  0  0  0999 V2000
   -1.4284    0.1835  -12.5205 N   0  0  0  0  0  0  0  0  0  0  0  0
   -1.7610    1.1871  -11.6659 C   0  0  0  0  0  0  0  0  0  0  0  0
   -2.8255    1.8328  -11.8540 O   0  0  0  0  0  0  0  0  0  0  0  0
   -0.9535    1.4993  -10.6113 N   0  0  0  0  0  0  0  0  0  0  0  0
    0.2039    0.8227  -10.3729 C   0  0  0  0  0  0  0  0  0  0  0  0
    0.9256    1.1361   -9.3877 O   0  0  0  0  0  0  0  0  0  0  0  0
    0.5816   -0.2164  -11.2216 C   0  0  0  0  0  0  0  0  0  0  0  0
    1.7113   -0.9280  -11.0305 N   0  0  0  0  0  0  0  0  0  0  0  0
    2.0449   -1.9456  -11.8618 C   0  0  0  0  0  0  0  0  0  0  0  0
    3.2199   -2.6564  -11.6069 C   0  0  0  0  0  0  0  0  0  0  0  0
    3.6041   -3.7304  -12.4183 C   0  0  0  0  0  0  0  0  0  0  0  0
    4.8752   -4.4751  -12.1016 C   0  0  2  0  0  0  0  0  0  0  0  0
    2.7736   -4.1180  -13.4910 C   0  0  0  0  0  0  0  0  0  0  0  0
    3.1377   -5.2858  -14.3730 C   0  0  2  0  0  0  0  0  0  0  0  0
    1.5977   -3.3957  -13.7573 C   0  0  0  0  0  0  0  0  0  0  0  0
    1.2104   -2.2886  -12.9641 C   0  0  0  0  0  0  0  0  0  0  0  0
    0.0588   -1.5547  -13.2176 N   0  0  0  0  0  0  0  0  0  0  0  0
   -0.2895   -0.5416  -12.3572 C   0  0  0  0  0  0  0  0  0  0  0  0
   -0.8259   -1.8286  -14.3762 C   0  0  2  0  0  0  0  0  0  0  0  0
   -1.2148   -3.3241  -14.4420 C   0  0  2  0  0  0  0  0  0  0  0  0
   -1.6933   -3.7704  -13.1985 O   0  0  0  0  0  0  0  0  0  0  0  0
   -0.0455   -4.2276  -14.9474 C   0  0  2  0  0  0  0  0  0  0  0  0
    0.7227   -3.5069  -15.8792 O   0  0  0  0  0  0  0  0  0  0  0  0
   -0.4583   -5.5728  -15.6082 C   0  0  2  0  0  0  0  0  0  0  0  0
   -0.1611   -6.6613  -14.7697 O   0  0  0  0  0  0  0  0  0  0  0  0
    0.1830   -5.7987  -16.9842 C   0  0  2  0  0  0  0  0  0  0  0  0
   -0.7580   -6.3293  -17.8785 O   0  0  0  0  0  0  0  0  0  0  0  0
   -1.2312    2.2768   -9.9692 H   0  0  0  0  0  0  0  0  0  0  0  0
    3.8369   -2.3680  -10.7635 H   0  0  0  0  0  0  0  0  0  0  0  0
    5.5911   -4.3860  -12.9451 H   0  0  0  0  0  0  0  0  0  0  0  0
    4.6462   -5.5466  -11.9238 H   0  0  0  0  0  0  0  0  0  0  0  0
    5.3724   -4.0701  -11.1945 H   0  0  0  0  0  0  0  0  0  0  0  0
    3.3270   -6.2073  -13.7822 H   0  0  0  0  0  0  0  0  0  0  0  0
    4.0615   -5.0586  -14.9449 H   0  0  0  0  0  0  0  0  0  0  0  0
    2.3079   -5.4926  -15.0805 H   0  0  0  0  0  0  0  0  0  0  0  0
    0.9891   -3.7377  -14.5762 H   0  0  0  0  0  0  0  0  0  0  0  0
   -0.3856   -1.4616  -15.3192 H   0  0  0  0  0  0  0  0  0  0  0  0
   -1.7523   -1.2192  -14.2919 H   0  0  0  0  0  0  0  0  0  0  0  0
   -2.0343   -3.4013  -15.1964 H   0  0  0  0  0  0  0  0  0  0  0  0
   -1.4662   -3.0743  -12.5280 H   0  0  0  0  0  0  0  0  0  0  0  0
    0.6133   -4.4851  -14.0838 H   0  0  0  0  0  0  0  0  0  0  0  0
    1.3030   -2.8868  -15.3640 H   0  0  0  0  0  0  0  0  0  0  0  0
   -1.5616   -5.5295  -15.7751 H   0  0  0  0  0  0  0  0  0  0  0  0
   -1.0265   -7.0423  -14.4675 H   0  0  0  0  0  0  0  0  0  0  0  0
    1.0530   -6.4860  -16.9019 H   0  0  0  0  0  0  0  0  0  0  0  0
    0.5385   -4.8296  -17.3945 H   0  0  0  0  0  0  0  0  0  0  0  0
   -1.0521   -7.1998  -17.5023 H   0  0  0  0  0  0  0  0  0  0  0  0
  1  2  1  0
  2  3  2  0
  2  4  1  0
  4  5  1  0
  5  6  2  0
  5  7  1  0
  7  8  2  0
  8  9  1  0
  9 10  1  0
 10 11  2  0
 11 12  1  0
 11 13  1  0
 13 14  1  0
 13 15  2  0
  9 16  2  0
 15 16  1  0
 16 17  1  0
  1 18  2  0
  7 18  1  0
 17 18  1  0
 17 19  1  0
 19 20  1  0
 20 21  1  0
 20 22  1  0
 22 23  1  0
 22 24  1  0
 24 25  1  0
 24 26  1  0
 26 27  1  0
  4 28  1  0
 10 29  1  0
 12 30  1  6
 12 31  1  0
 12 32  1  0
 14 33  1  1
 14 34  1  0
 14 35  1  0
 15 36  1  0
 19 37  1  6
 19 38  1  0
 20 39  1  6
 21 40  1  0
 22 41  1  1
 23 42  1  0
 24 43  1  6
 25 44  1  0
 26 45  1  1
 26 46  1  0
 27 47  1  0
M  END
