7X5N_5M5_B_501
     RDKit          3D

 30 33  0  0  0  0  0  0  0  0999 V2000
   81.8863   44.0692   45.4114 C   0  0  0  0  0  0  0  0  0  0  0  0
   81.4659   45.3504   46.0355 C   0  0  0  0  0  0  0  0  0  0  0  0
   80.1493   45.4549   46.4571 C   0  0  0  0  0  0  0  0  0  0  0  0
   82.5063   49.8773   46.1873 C   0  0  2  0  0  0  0  0  0  0  0  0
   81.9523   49.5834   44.8041 C   0  0  0  0  0  0  0  0  0  0  0  0
   83.6230   50.8683   46.0279 C   0  0  0  0  0  0  0  0  0  0  0  0
   82.3513   46.4190   46.1989 C   0  0  0  0  0  0  0  0  0  0  0  0
   79.7450   46.6389   47.0386 C   0  0  0  0  0  0  0  0  0  0  0  0
   78.3603   46.8323   47.5141 C   0  0  0  0  0  0  0  0  0  0  0  0
   77.9796   48.0820   48.0041 C   0  0  0  0  0  0  0  0  0  0  0  0
   76.6977   48.3102   48.4594 C   0  0  0  0  0  0  0  0  0  0  0  0
   75.8154   47.2589   48.4101 C   0  0  0  0  0  0  0  0  0  0  0  0
   76.1388   46.0122   47.9384 C   0  0  0  0  0  0  0  0  0  0  0  0
   77.4349   45.7985   47.4830 C   0  0  0  0  0  0  0  0  0  0  0  0
   80.6474   47.6927   47.1912 C   0  0  0  0  0  0  0  0  0  0  0  0
   81.9459   47.6047   46.7815 C   0  0  0  0  0  0  0  0  0  0  0  0
   82.9723   48.6711   46.9019 C   0  0  1  0  0  0  0  0  0  0  0  0
   84.2079   48.0784   46.3180 C   0  0  0  0  0  0  0  0  0  0  0  0
   84.5171   47.7086   45.0096 C   0  0  0  0  0  0  0  0  0  0  0  0
   83.7200   47.7926   43.7843 C   0  0  0  0  0  0  0  0  0  0  0  0
   85.3392   47.7743   47.0340 C   0  0  0  0  0  0  0  0  0  0  0  0
   84.2981   48.5586   49.0019 C   0  0  0  0  0  0  0  0  0  0  0  0
   83.1878   48.8665   48.3499 C   0  0  0  0  0  0  0  0  0  0  0  0
   82.1414   49.4325   49.2034 C   0  0  0  0  0  0  0  0  0  0  0  0
   85.7937   47.2135   45.0233 N   0  0  0  0  0  0  0  0  0  0  0  0
   86.2939   47.2501   46.2379 N   0  0  0  0  0  0  0  0  0  0  0  0
   84.4303   48.7818   50.4268 N   0  0  0  0  0  0  0  0  0  0  0  0
   81.3000   49.8758   49.9079 N   0  0  0  0  0  0  0  0  0  0  0  0
   81.6227   42.9728   46.2116 O   0  0  0  0  0  0  0  0  0  0  0  0
   85.4093   48.0077   48.3930 O   0  0  0  0  0  0  0  0  0  0  0  0
  1  2  1  0
  2  3  2  0
  4  5  1  6
  4  6  1  0
  2  7  1  0
  3  8  1  0
  8  9  1  0
  9 10  2  0
 10 11  1  0
 11 12  2  0
 12 13  1  0
  9 14  1  0
 13 14  2  0
  8 15  2  0
 15 16  1  0
  7 16  2  0
 17  4  1  0
 17 16  1  1
 17 18  1  0
 18 19  1  0
 19 20  1  0
 18 21  2  0
 22 23  2  0
 17 23  1  0
 23 24  1  0
 19 25  2  0
 21 26  1  0
 25 26  1  0
 22 27  1  0
 24 28  3  0
  1 29  1  0
 22 30  1  0
 21 30  1  0
M  END
$$$$
