@<TRIPOS>MOLECULE
1N1M_A3M_A_954
 30 30 0 0 0
SMALL
GASTEIGER

@<TRIPOS>ATOM
      1 C          84.1890   77.2130   97.3480 C.3     1  UNL1       -0.0357
      2 C          82.8540   76.3810   97.0320 C.3     1  UNL1        0.0148
      3 N          82.6620   75.5160   98.2090 N.am    1  UNL1       -0.3002
      4 C          84.0340   75.2340   98.6920 C.3     1  UNL1        0.0148
      5 C          84.6320   76.6600   98.7760 C.3     1  UNL1       -0.0357
      6 C          81.8000   74.3630   97.9530 C.2     1  UNL1        0.2326
      7 C          80.4200   74.3850   97.4480 C.3     1  UNL1        0.0848
      8 C          79.2960   74.2300   98.4320 C.3     1  UNL1       -0.0230
      9 C          79.2210   75.2820   99.4580 C.3     1  UNL1       -0.0608
     10 O          82.3220   73.1150   98.2010 O.2     1  UNL1       -0.2739
     11 N          80.2150   73.3530   96.3790 N.3     1  UNL1       -0.3197
     12 C          77.8050   74.2860   97.6340 C.3     1  UNL1       -0.0608
     13 H          83.9864   78.2628   97.3889 H       1  UNL1        0.0281
     14 H          84.9443   77.0955   96.5993 H       1  UNL1        0.0281
     15 H          82.9776   75.7918   96.1474 H       1  UNL1        0.0464
     16 H          82.0125   77.0186   96.8578 H       1  UNL1        0.0464
     17 H          84.5745   74.6239   97.9989 H       1  UNL1        0.0464
     18 H          84.0688   74.6918   99.6138 H       1  UNL1        0.0464
     19 H          84.2020   77.2271   99.5750 H       1  UNL1        0.0281
     20 H          85.6822   76.7033   98.9763 H       1  UNL1        0.0281
     21 H          80.3527   75.3914   97.0909 H       1  UNL1        0.0557
     22 H          79.4985   73.2920   98.9053 H       1  UNL1        0.0315
     23 H          79.0186   76.2227   98.9901 H       1  UNL1        0.0233
     24 H          80.1527   75.3370   99.9812 H       1  UNL1        0.0233
     25 H          78.4371   75.0512  100.1488 H       1  UNL1        0.0233
     26 H          80.2920   72.4212   96.7867 H       1  UNL1        0.1189
     27 H          80.9248   73.4673   95.6555 H       1  UNL1        0.1189
     28 H          77.6750   75.2500   97.1883 H       1  UNL1        0.0233
     29 H          77.0176   74.1088   98.3365 H       1  UNL1        0.0233
     30 H          77.7795   73.5346   96.8726 H       1  UNL1        0.0233
@<TRIPOS>BOND
     1     1     2    1
     2     2     3    1
     3     3     4    1
     4     1     5    1
     5     4     5    1
     6     3     6   am
     7     6     7    1
     8     7     8    1
     9     8     9    1
    10     6    10    2
    11     7    11    1
    12     8    12    1
    13     1    13    1
    14     1    14    1
    15     2    15    1
    16     2    16    1
    17     4    17    1
    18     4    18    1
    19     5    19    1
    20     5    20    1
    21     7    21    1
    22     8    22    1
    23     9    23    1
    24     9    24    1
    25     9    25    1
    26    11    26    1
    27    11    27    1
    28    12    28    1
    29    12    29    1
    30    12    30    1
