1N1M_A3M_A_954
     RDKit          3D

 30 30  0  0  0  0  0  0  0  0999 V2000
   -0.1883    2.5041   -1.7487 C   0  0  0  0  0  0  0  0  0  0  0  0
   -0.7321    1.2020   -1.1742 C   0  0  0  0  0  0  0  0  0  0  0  0
    0.0166    0.9676    0.0504 N   0  0  0  0  0  0  0  0  0  0  0  0
    1.0659    1.9515    0.2551 C   0  0  0  0  0  0  0  0  0  0  0  0
    1.1363    2.7536   -1.0356 C   0  0  0  0  0  0  0  0  0  0  0  0
   -0.3014   -0.0252    1.0458 C   0  0  0  0  0  0  0  0  0  0  0  0
   -0.9724   -1.3418    0.7101 C   0  0  2  0  0  0  0  0  0  0  0  0
   -0.0977   -2.2307   -0.2263 C   0  0  0  0  0  0  0  0  0  0  0  0
    1.2971   -2.4768    0.3744 C   0  0  0  0  0  0  0  0  0  0  0  0
    0.0492    0.1760    2.2408 O   0  0  0  0  0  0  0  0  0  0  0  0
   -2.3129   -1.0939    0.1666 N   0  0  0  0  0  0  0  0  0  0  0  0
   -0.7749   -3.5832   -0.5022 C   0  0  0  0  0  0  0  0  0  0  0  0
   -0.8919    3.3356   -1.5228 H   0  0  0  0  0  0  0  0  0  0  0  0
   -0.0476    2.4351   -2.8493 H   0  0  0  0  0  0  0  0  0  0  0  0
   -0.5638    0.3733   -1.8919 H   0  0  0  0  0  0  0  0  0  0  0  0
   -1.8154    1.3114   -0.9531 H   0  0  0  0  0  0  0  0  0  0  0  0
    0.7982    2.6125    1.1082 H   0  0  0  0  0  0  0  0  0  0  0  0
    2.0358    1.4468    0.4563 H   0  0  0  0  0  0  0  0  0  0  0  0
    1.2911    3.8357   -0.8336 H   0  0  0  0  0  0  0  0  0  0  0  0
    1.9721    2.3750   -1.6644 H   0  0  0  0  0  0  0  0  0  0  0  0
   -1.0948   -1.8976    1.6698 H   0  0  0  0  0  0  0  0  0  0  0  0
    0.0433   -1.7204   -1.2018 H   0  0  0  0  0  0  0  0  0  0  0  0
    1.2141   -2.9533    1.3748 H   0  0  0  0  0  0  0  0  0  0  0  0
    1.8550   -1.5221    0.4743 H   0  0  0  0  0  0  0  0  0  0  0  0
    1.8923   -3.1399   -0.2893 H   0  0  0  0  0  0  0  0  0  0  0  0
   -2.2826   -1.0562   -0.8776 H   0  0  0  0  0  0  0  0  0  0  0  0
   -2.9349   -1.8958    0.4204 H   0  0  0  0  0  0  0  0  0  0  0  0
   -1.7308   -3.4411   -1.0478 H   0  0  0  0  0  0  0  0  0  0  0  0
   -0.1230   -4.2187   -1.1391 H   0  0  0  0  0  0  0  0  0  0  0  0
   -0.9779   -4.1210    0.4487 H   0  0  0  0  0  0  0  0  0  0  0  0
  1  2  1  0
  2  3  1  0
  3  4  1  0
  1  5  1  0
  4  5  1  0
  3  6  1  0
  6  7  1  0
  7  8  1  0
  8  9  1  0
  6 10  2  0
  7 11  1  0
  8 12  1  0
  1 13  1  0
  1 14  1  0
  2 15  1  0
  2 16  1  0
  4 17  1  0
  4 18  1  0
  5 19  1  0
  5 20  1  0
  7 21  1  1
  8 22  1  0
  9 23  1  0
  9 24  1  0
  9 25  1  0
 11 26  1  0
 11 27  1  0
 12 28  1  0
 12 29  1  0
 12 30  1  0
M  END
