
     RDKit          3D

 17 18  0  0  0  0  0  0  0  0999 V2000
    2.1228   -0.2574   23.8541 C   0  0  0  0  0  0  0  0  0  0  0  0
    2.5826   -1.4393   23.2725 C   0  0  0  0  0  0  0  0  0  0  0  0
    3.0798   -1.4304   21.9676 C   0  0  0  0  0  0  0  0  0  0  0  0
    3.1046   -0.2349   21.2389 C   0  0  0  0  0  0  0  0  0  0  0  0
    2.6630    0.9526   21.8338 C   0  0  0  0  0  0  0  0  0  0  0  0
    2.1668    0.9387   23.1380 C   0  0  0  0  0  0  0  0  0  0  0  0
    3.6351   -0.1767   19.8535 C   0  0  0  0  0  0  0  0  0  0  0  0
    3.8179    1.1150   19.1438 C   0  0  0  0  0  0  0  0  0  0  0  0
    3.0990    1.4249   17.9827 C   0  0  0  0  0  0  0  0  0  0  0  0
    3.2866    2.6601   17.3527 C   0  0  0  0  0  0  0  0  0  0  0  0
    4.1835    3.5951   17.8867 C   0  0  0  0  0  0  0  0  0  0  0  0
    4.8858    3.2902   19.0594 C   0  0  0  0  0  0  0  0  0  0  0  0
    4.6984    2.0568   19.6895 C   0  0  0  0  0  0  0  0  0  0  0  0
    4.4134    4.9165   17.2529 C   0  0  0  0  0  0  0  0  0  0  0  0
    3.9331   -1.2205   19.2789 O   0  0  0  0  0  0  0  0  0  0  0  0
    5.4230    5.5884   17.3505 O   0  0  0  0  0  0  0  0  0  0  0  0
    3.3646    5.3327   16.5215 O   0  0  0  0  0  0  0  0  0  0  0  0
  1  2  4  0
  2  3  4  0
  3  4  4  0
  4  5  4  0
  5  6  4  0
  1  6  4  0
  4  7  1  0
  7  8  1  0
  8  9  4  0
  9 10  4  0
 10 11  4  0
 11 12  4  0
 12 13  4  0
  8 13  4  0
 11 14  1  0
  7 15  2  0
 14 16  2  0
 14 17  1  0
M  END
