6TW5_9M2_CCC_501
     RDKit          3D

 59 62  0  0  0  0  0  0  0  0999 V2000
   14.3650   16.0027   61.5643 C   0  0  0  0  0  0  0  0  0  0  0  0
   16.7390   19.3913   60.2924 C   0  0  0  0  0  0  0  0  0  0  0  0
   17.6619   20.4205   60.1228 C   0  0  0  0  0  0  0  0  0  0  0  0
   14.9310   18.3652   61.6719 C   0  0  0  0  0  0  0  0  0  0  0  0
   15.2433   17.0513   61.2859 C   0  0  0  0  0  0  0  0  0  0  0  0
   15.9455   19.4100   61.4589 C   0  0  0  0  0  0  0  0  0  0  0  0
   16.1278   20.4303   62.4279 C   0  0  0  0  0  0  0  0  0  0  0  0
   19.1975   21.8601   59.4660 N   0  0  0  0  0  0  0  0  0  0  0  0
   17.0825   21.4450   62.2277 C   0  0  0  0  0  0  0  0  0  0  0  0
   17.8310   21.4077   61.0550 C   0  0  0  0  0  0  0  0  0  0  0  0
   12.3231   15.2321   62.5188 F   0  0  0  0  0  0  0  0  0  0  0  0
   13.1697   16.2533   62.2381 C   0  0  0  0  0  0  0  0  0  0  0  0
   12.8409   17.5568   62.6164 C   0  0  0  0  0  0  0  0  0  0  0  0
   13.6947   18.6270   62.3185 C   0  0  0  0  0  0  0  0  0  0  0  0
   18.7699   22.2824   60.6513 N   0  0  0  0  0  0  0  0  0  0  0  0
   18.5425   20.7309   59.1098 C   0  0  0  0  0  0  0  0  0  0  0  0
   18.7306   20.0055   57.8002 C   0  0  2  0  0  0  0  0  0  0  0  0
   19.3705   20.8300   56.7505 N   0  0  0  0  0  0  0  0  0  0  0  0
   18.4752   21.8738   56.2276 C   0  0  2  0  0  0  0  0  0  0  0  0
   19.9261   20.0189   55.6560 C   0  0  1  0  0  0  0  0  0  0  0  0
   13.2569   19.9123   62.6769 O   0  0  0  0  0  0  0  0  0  0  0  0
   13.4663   21.0960   61.9082 C   0  0  2  0  0  0  0  0  0  0  0  0
   12.7372   22.2683   62.5594 C   0  0  1  0  0  0  0  0  0  0  0  0
   13.4134   22.6793   63.8395 C   0  0  0  0  0  0  0  0  0  0  0  0
   12.8083   23.0371   65.0358 C   0  0  0  0  0  0  0  0  0  0  0  0
   11.3447   23.0135   65.3359 C   0  0  1  0  0  0  0  0  0  0  0  0
   13.7401   23.4785   65.9036 N   0  0  0  0  0  0  0  0  0  0  0  0
   14.9156   23.4110   65.2979 N   0  0  0  0  0  0  0  0  0  0  0  0
   16.1638   23.8423   65.9170 C   0  0  2  0  0  0  0  0  0  0  0  0
   14.7616   22.9263   64.0467 C   0  0  0  0  0  0  0  0  0  0  0  0
   15.8558   22.8318   63.0250 C   0  0  2  0  0  0  0  0  0  0  0  0
   14.6197   14.9927   61.2699 H   0  0  0  0  0  0  0  0  0  0  0  0
   16.6179   18.6181   59.5447 H   0  0  0  0  0  0  0  0  0  0  0  0
   16.1824   16.8352   60.7903 H   0  0  0  0  0  0  0  0  0  0  0  0
   15.5238   20.4408   63.3268 H   0  0  0  0  0  0  0  0  0  0  0  0
   19.9275   22.3498   58.9028 H   0  0  0  0  0  0  0  0  0  0  0  0
   17.2217   22.2326   62.9569 H   0  0  0  0  0  0  0  0  0  0  0  0
   11.9018   17.7433   63.1222 H   0  0  0  0  0  0  0  0  0  0  0  0
   17.7475   19.6365   57.4360 H   0  0  0  0  0  0  0  0  0  0  0  0
   19.3457   19.0974   57.9801 H   0  0  0  0  0  0  0  0  0  0  0  0
   17.5323   21.4389   55.8295 H   0  0  0  0  0  0  0  0  0  0  0  0
   18.9825   22.4267   55.4085 H   0  0  0  0  0  0  0  0  0  0  0  0
   18.2317   22.6103   57.0232 H   0  0  0  0  0  0  0  0  0  0  0  0
   21.0046   19.8204   55.8321 H   0  0  0  0  0  0  0  0  0  0  0  0
   19.3862   19.0528   55.5491 H   0  0  0  0  0  0  0  0  0  0  0  0
   19.8472   20.5757   54.6979 H   0  0  0  0  0  0  0  0  0  0  0  0
   13.0856   20.9588   60.8725 H   0  0  0  0  0  0  0  0  0  0  0  0
   14.5490   21.3326   61.8712 H   0  0  0  0  0  0  0  0  0  0  0  0
   12.7062   23.1232   61.8508 H   0  0  0  0  0  0  0  0  0  0  0  0
   11.6867   21.9778   62.7710 H   0  0  0  0  0  0  0  0  0  0  0  0
   10.8846   23.9891   65.0732 H   0  0  0  0  0  0  0  0  0  0  0  0
   10.8529   22.2139   64.7445 H   0  0  0  0  0  0  0  0  0  0  0  0
   11.1855   22.8232   66.4176 H   0  0  0  0  0  0  0  0  0  0  0  0
   16.9510   23.0788   65.7444 H   0  0  0  0  0  0  0  0  0  0  0  0
   16.0254   23.9717   67.0115 H   0  0  0  0  0  0  0  0  0  0  0  0
   16.4850   24.8116   65.4807 H   0  0  0  0  0  0  0  0  0  0  0  0
   16.3509   23.8197   62.9240 H   0  0  0  0  0  0  0  0  0  0  0  0
   15.4491   22.5246   62.0401 H   0  0  0  0  0  0  0  0  0  0  0  0
   16.6079   22.0777   63.3356 H   0  0  0  0  0  0  0  0  0  0  0  0
  2  3  1  0
  1  5  2  0
  4  5  1  0
  4  6  1  0
  2  6  2  0
  6  7  1  0
  7  9  2  0
  3 10  1  0
  9 10  1  0
 11 12  1  0
  1 12  1  0
 12 13  2  0
 13 14  1  0
  4 14  2  0
 10 15  2  0
  8 15  1  0
  3 16  2  0
  8 16  1  0
 16 17  1  0
 17 18  1  0
 18 19  1  0
 18 20  1  0
 14 21  1  0
 21 22  1  0
 22 23  1  0
 23 24  1  0
 24 25  1  0
 25 26  1  0
 25 27  2  0
 27 28  1  0
 28 29  1  0
 24 30  2  0
 28 30  1  0
 30 31  1  0
  1 32  1  0
  2 33  1  0
  5 34  1  0
  7 35  1  0
  8 36  1  0
  9 37  1  0
 13 38  1  0
 17 39  1  6
 17 40  1  0
 19 41  1  6
 19 42  1  0
 19 43  1  0
 20 44  1  1
 20 45  1  0
 20 46  1  0
 22 47  1  6
 22 48  1  0
 23 49  1  6
 23 50  1  0
 26 51  1  6
 26 52  1  0
 26 53  1  0
 29 54  1  1
 29 55  1  0
 29 56  1  0
 31 57  1  6
 31 58  1  0
 31 59  1  0
M  END
