7RWO_7WN_A_3001
     RDKit          3D

 35 37  0  0  0  0  0  0  0  0999 V2000
   -1.3071   -0.5500   -0.2353 N   0  0  0  0  0  0  0  0  0  0  0  0
   -1.0922    0.4715   -1.2674 C   0  0  0  0  0  0  0  0  0  0  0  0
    0.2168    0.2180   -2.0251 C   0  0  0  0  0  0  0  0  0  0  0  0
    1.3593   -0.0692   -1.0861 C   0  0  0  0  0  0  0  0  0  0  0  0
    2.6737   -0.0394   -1.5722 C   0  0  0  0  0  0  0  0  0  0  0  0
    3.7458   -0.3507   -0.7336 C   0  0  0  0  0  0  0  0  0  0  0  0
    5.3325   -1.7917    3.6980 C   0  0  0  0  0  0  0  0  0  0  0  0
    3.5637   -0.1138    4.9774 C   0  0  0  0  0  0  0  0  0  0  0  0
    3.6009   -0.1232    3.5768 C   0  0  0  0  0  0  0  0  0  0  0  0
    4.5196   -0.9625    2.9263 C   0  0  0  0  0  0  0  0  0  0  0  0
    3.5204   -0.6956    0.6107 C   0  0  0  0  0  0  0  0  0  0  0  0
    2.2038   -0.7529    1.0895 C   0  0  0  0  0  0  0  0  0  0  0  0
    1.1204   -0.4565    0.2484 C   0  0  0  0  0  0  0  0  0  0  0  0
   -0.2817   -0.4546    0.8131 C   0  0  0  0  0  0  0  0  0  0  0  0
    4.3879   -0.9350    7.1474 C   0  0  0  0  0  0  0  0  0  0  0  0
    4.6073   -1.0242    1.4950 N   0  0  0  0  0  0  0  0  0  0  0  0
    5.2559   -1.7420    5.0516 N   0  0  0  0  0  0  0  0  0  0  0  0
    4.4082   -0.9264    5.6847 N   0  0  0  0  0  4  0  0  0  0  0  0
    2.7478    0.6386    5.5786 O   0  0  0  0  0  0  0  0  0  0  0  0
    2.4553    0.8586    2.6628 Cl  0  0  0  0  0  0  0  0  0  0  0  0
   -1.2553   -1.4994   -0.6758 H   0  0  0  0  0  0  0  0  0  0  0  0
   -1.9400    0.4495   -1.9852 H   0  0  0  0  0  0  0  0  0  0  0  0
   -1.0738    1.4836   -0.8047 H   0  0  0  0  0  0  0  0  0  0  0  0
    0.0850   -0.6550   -2.7003 H   0  0  0  0  0  0  0  0  0  0  0  0
    0.4514    1.1077   -2.6490 H   0  0  0  0  0  0  0  0  0  0  0  0
    2.8678    0.2210   -2.6056 H   0  0  0  0  0  0  0  0  0  0  0  0
    4.7484   -0.3296   -1.1397 H   0  0  0  0  0  0  0  0  0  0  0  0
    6.0359   -2.4650    3.2257 H   0  0  0  0  0  0  0  0  0  0  0  0
    2.0231   -1.0194    2.1241 H   0  0  0  0  0  0  0  0  0  0  0  0
   -0.4357    0.4783    1.3975 H   0  0  0  0  0  0  0  0  0  0  0  0
   -0.4049   -1.3103    1.5125 H   0  0  0  0  0  0  0  0  0  0  0  0
    5.1578   -1.6300    7.5471 H   0  0  0  0  0  0  0  0  0  0  0  0
    4.6014    0.0839    7.5352 H   0  0  0  0  0  0  0  0  0  0  0  0
    3.3918   -1.2677    7.5091 H   0  0  0  0  0  0  0  0  0  0  0  0
    5.5474   -1.2090    1.0769 H   0  0  0  0  0  0  0  0  0  0  0  0
  1  2  1  0
  2  3  1  0
  3  4  1  0
  4  5  4  0
  5  6  4  0
  8  9  4  0
  7 10  4  0
  9 10  4  0
  6 11  4  0
 11 12  4  0
  4 13  4  0
 12 13  4  0
  1 14  1  0
 13 14  1  0
 11 16  1  0
 10 16  1  0
  7 17  4  0
 17 18  4  0
  8 18  4  0
 15 18  1  0
  8 19  2  0
  9 20  1  0
  1 21  1  0
  2 22  1  0
  2 23  1  0
  3 24  1  0
  3 25  1  0
  5 26  1  0
  6 27  1  0
  7 28  1  0
 12 29  1  0
 14 30  1  0
 14 31  1  0
 15 32  1  0
 15 33  1  0
 15 34  1  0
 16 35  1  0
M  CHG  1  18   1
M  END
