7KM8_WPD_B_203
     RDKit          3D

 29 30  0  0  0  0  0  0  0  0999 V2000
  -32.8132    0.8591  -11.2376 C   0  0  0  0  0  0  0  0  0  0  0  0
  -32.9109   -0.4283  -10.7502 O   0  0  0  0  0  0  0  0  0  0  0  0
  -29.9773    0.8352  -13.7132 C   0  0  0  0  0  0  0  0  0  0  0  0
  -31.1225    0.1868  -12.9564 C   0  0  0  0  0  0  0  0  0  0  0  0
  -31.9673    1.2090  -12.2904 C   0  0  0  0  0  0  0  0  0  0  0  0
  -32.6669    3.4696  -12.1656 C   0  0  0  0  0  0  0  0  0  0  0  0
  -33.5704    1.8814  -10.6866 C   0  0  0  0  0  0  0  0  0  0  0  0
  -34.1079   -1.1324  -10.5891 C   0  0  0  0  0  0  0  0  0  0  0  0
  -33.9487   -2.5081   -9.9870 C   0  0  0  0  0  0  0  0  0  0  0  0
  -32.7292   -3.2067  -10.5568 C   0  0  0  0  0  0  0  0  0  0  0  0
  -32.0623   -5.2231  -11.6610 C   0  0  0  0  0  0  0  0  0  0  0  0
  -32.3863   -6.4669  -12.1860 C   0  0  0  0  0  0  0  0  0  0  0  0
  -31.4375   -7.3175  -12.7130 C   0  0  0  0  0  0  0  0  0  0  0  0
  -30.1155   -6.8872  -12.7049 C   0  0  0  0  0  0  0  0  0  0  0  0
  -29.7575   -5.6459  -12.1857 C   0  0  0  0  0  0  0  0  0  0  0  0
  -28.3246   -5.2484  -12.2082 C   0  0  0  0  0  0  0  0  0  0  0  0
  -27.6503   -5.5006  -10.8833 C   0  0  2  0  0  0  0  0  0  0  0  0
  -28.3097   -4.7153   -9.7881 C   0  0  2  0  0  0  0  0  0  0  0  0
  -26.2048   -5.2708  -10.9251 C   0  0  0  0  0  0  0  0  0  0  0  0
  -30.7565   -4.8453  -11.6746 C   0  0  0  0  0  0  0  0  0  0  0  0
  -27.5007   -4.6227   -8.6592 F   0  0  0  0  0  0  0  0  0  0  0  0
  -29.4762   -5.3208   -9.3480 F   0  0  0  0  0  0  0  0  0  0  0  0
  -31.9324    2.4940  -12.7053 N   0  0  0  0  0  0  0  0  0  0  0  0
  -32.5816    4.8037  -12.6513 N   0  0  0  0  0  0  0  0  0  0  0  0
  -33.4873    3.1575  -11.1530 N   0  0  0  0  0  0  0  0  0  0  0  0
  -34.4794    1.6764   -9.6133 N   0  0  0  0  0  0  0  0  0  0  0  0
  -33.0980   -4.4473  -11.1560 O   0  0  0  0  0  0  0  0  0  0  0  0
  -25.7425   -4.0968  -10.9732 O   0  0  0  0  0  0  0  0  0  0  0  0
  -25.3078   -6.3174  -10.9135 O   0  0  0  0  0  0  0  0  0  0  0  0
  1  2  1  0
  3  4  1  6
  1  5  2  0
  4  5  1  6
  1  7  1  0
  8  2  1  6
  9  8  1  6
  9 10  1  0
 11 12  2  0
 12 13  1  0
 13 14  2  0
 14 15  1  0
 16 15  1  1
 17 16  1  0
 17 18  1  0
 17 19  1  6
 15 20  2  0
 11 20  1  0
 18 21  1  1
 18 22  1  0
  6 23  2  0
  5 23  1  0
  6 24  1  0
  7 25  2  0
  6 25  1  0
  7 26  1  0
 11 27  1  0
 10 27  1  6
 19 28  2  0
 19 29  1  0
M  END
$$$$
