7RUI_7QZ_A_201
     RDKit          3D

 80 85  0  0  0  0  0  0  0  0999 V2000
   -0.2074   -5.9509    6.8080 C   0  0  0  0  0  0  0  0  0  0  0  0
    0.8408   -1.1068    6.3816 C   0  0  0  0  0  0  0  0  0  0  0  0
    0.0830   -0.5016    7.4189 C   0  0  0  0  0  0  0  0  0  0  0  0
   -0.3828    0.8215    7.3020 C   0  0  0  0  0  0  0  0  0  0  0  0
   -0.0283    1.5363    6.1574 C   0  0  0  0  0  0  0  0  0  0  0  0
    0.7163    0.9776    5.1522 C   0  0  0  0  0  0  0  0  0  0  0  0
    1.1579   -0.3466    5.2311 C   0  0  0  0  0  0  0  0  0  0  0  0
    0.3298    3.0200    4.5734 C   0  0  0  0  0  0  0  0  0  0  0  0
   -0.2941    2.8390    5.7995 C   0  0  0  0  0  0  0  0  0  0  0  0
    1.7816    1.6790    2.9455 C   0  0  2  0  0  0  0  0  0  0  0  0
    0.9531    1.0655    1.7946 C   0  0  0  0  0  0  0  0  0  0  0  0
    2.9059    0.6912    3.2832 C   0  0  0  0  0  0  0  0  0  0  0  0
    4.0070   -1.3952    2.9074 C   0  0  0  0  0  0  0  0  0  0  0  0
    2.1228   -5.1870    6.6629 C   0  0  0  0  0  0  0  0  0  0  0  0
    3.0847   -4.1730    6.5329 C   0  0  0  0  0  0  0  0  0  0  0  0
    2.6623   -2.8412    6.4938 C   0  0  0  0  0  0  0  0  0  0  0  0
    1.2964   -2.5228    6.4992 C   0  0  0  0  0  0  0  0  0  0  0  0
    0.3710   -3.5782    6.5878 C   0  0  0  0  0  0  0  0  0  0  0  0
    0.7881   -4.8776    6.6884 N   0  0  0  0  0  4  0  0  0  0  0  0
    0.9534    1.8799    4.1668 N   0  0  0  0  0  4  0  0  0  0  0  0
    3.0102   -0.5097    2.6413 N   0  0  0  0  0  0  0  0  0  0  0  0
    4.9738   -1.0900    3.8652 C   0  0  0  0  0  0  0  0  0  0  0  0
    4.9018    0.1272    4.5419 C   0  0  0  0  0  0  0  0  0  0  0  0
    3.8676    1.0213    4.2575 C   0  0  0  0  0  0  0  0  0  0  0  0
    2.3054    3.0295    2.4322 C   0  0  0  0  0  0  0  0  0  0  0  0
    1.4786    4.1713    2.3624 C   0  0  0  0  0  0  0  0  0  0  0  0
    1.9872    5.3629    1.8433 C   0  0  0  0  0  0  0  0  0  0  0  0
    3.2927    5.4141    1.3619 C   0  0  0  0  0  0  0  0  0  0  0  0
    4.0695    4.2578    1.3880 C   0  0  0  0  0  0  0  0  0  0  0  0
    3.5631    3.1089    1.9080 N   0  0  0  0  0  0  0  0  0  0  0  0
   -1.1516    1.4306    8.3443 N   0  0  0  0  0  0  0  0  0  0  0  0
   -0.3729    2.2561    9.6552 S   0  0  1  0  0  6  0  0  0  0  0  0
    1.0755    1.3597   10.2104 C   0  0  0  0  0  0  0  0  0  0  0  0
    1.6469    0.4526    9.1206 C   0  0  2  0  0  0  0  0  0  0  0  0
    0.6931    0.2074    8.1485 F   0  0  0  0  0  0  0  0  0  0  0  0
    2.0294   -0.7507    9.6854 F   0  0  0  0  0  0  0  0  0  0  0  0
    2.7554    1.0394    8.5369 F   0  0  0  0  0  0  0  0  0  0  0  0
    0.0317    3.6255    9.1829 O   0  0  0  0  0  0  0  0  0  0  0  0
   -1.3462    2.3997   10.7916 O   0  0  0  0  0  0  0  0  0  0  0  0
    4.4823   -4.5009    6.4429 N   0  0  0  0  0  0  0  0  0  0  0  0
    5.3648   -3.8856    5.4933 C   0  0  0  0  0  0  0  0  0  0  0  0
    5.0520   -2.5850    4.9731 N   0  0  0  0  0  0  0  0  0  0  0  0
    4.0638   -1.7235    5.5612 C   0  0  0  0  0  0  0  0  0  0  0  0
    4.0302   -0.3681    5.1962 C   0  0  0  0  0  0  0  0  0  0  0  0
    3.0702    0.4883    5.7471 C   0  0  0  0  0  0  0  0  0  0  0  0
    2.1500    0.0017    6.6788 C   0  0  0  0  0  0  0  0  0  0  0  0
    2.1940   -1.3396    7.0702 C   0  0  0  0  0  0  0  0  0  0  0  0
    3.1504   -2.2018    6.5211 C   0  0  0  0  0  0  0  0  0  0  0  0
    3.2100   -3.4848    6.9574 F   0  0  0  0  0  0  0  0  0  0  0  0
    6.4399   -4.4575    5.1676 O   0  0  0  0  0  0  0  0  0  0  0  0
    2.4969   -6.3911    6.7370 O   0  0  0  0  0  0  0  0  0  0  0  0
   -0.0596   -6.4942    7.7649 H   0  0  0  0  0  0  0  0  0  0  0  0
   -1.2470   -5.5573    6.7953 H   0  0  0  0  0  0  0  0  0  0  0  0
   -0.0996   -6.6606    5.9610 H   0  0  0  0  0  0  0  0  0  0  0  0
   -0.1022   -1.0385    8.3373 H   0  0  0  0  0  0  0  0  0  0  0  0
    1.7300   -0.7770    4.4246 H   0  0  0  0  0  0  0  0  0  0  0  0
    0.3231    3.9530    4.0268 H   0  0  0  0  0  0  0  0  0  0  0  0
   -0.8569    3.5764    6.3572 H   0  0  0  0  0  0  0  0  0  0  0  0
    1.5982    0.8706    0.9098 H   0  0  0  0  0  0  0  0  0  0  0  0
    0.1453    1.7603    1.4798 H   0  0  0  0  0  0  0  0  0  0  0  0
    0.4916    0.1021    2.0992 H   0  0  0  0  0  0  0  0  0  0  0  0
    4.0495   -2.3346    2.3713 H   0  0  0  0  0  0  0  0  0  0  0  0
    3.4080   -2.0577    6.4717 H   0  0  0  0  0  0  0  0  0  0  0  0
   -0.6898   -3.3600    6.5605 H   0  0  0  0  0  0  0  0  0  0  0  0
    5.7712   -1.7892    4.0799 H   0  0  0  0  0  0  0  0  0  0  0  0
    5.6482    0.3796    5.2841 H   0  0  0  0  0  0  0  0  0  0  0  0
    3.8213    1.9650    4.7871 H   0  0  0  0  0  0  0  0  0  0  0  0
    0.4518    4.1537    2.7011 H   0  0  0  0  0  0  0  0  0  0  0  0
    1.3624    6.2457    1.8085 H   0  0  0  0  0  0  0  0  0  0  0  0
    3.6934    6.3369    0.9600 H   0  0  0  0  0  0  0  0  0  0  0  0
    5.0767    4.2724    0.9966 H   0  0  0  0  0  0  0  0  0  0  0  0
   -2.1178    1.0770    8.5177 H   0  0  0  0  0  0  0  0  0  0  0  0
    1.8551    2.0939   10.5058 H   0  0  0  0  0  0  0  0  0  0  0  0
    0.8044    0.7477   11.0969 H   0  0  0  0  0  0  0  0  0  0  0  0
    4.8305   -5.3333    6.9679 H   0  0  0  0  0  0  0  0  0  0  0  0
    5.4002   -2.3470    4.0173 H   0  0  0  0  0  0  0  0  0  0  0  0
    4.7329    0.0183    4.4678 H   0  0  0  0  0  0  0  0  0  0  0  0
    3.0360    1.5270    5.4470 H   0  0  0  0  0  0  0  0  0  0  0  0
    1.4075    0.6652    7.1058 H   0  0  0  0  0  0  0  0  0  0  0  0
    1.4919   -1.7087    7.8070 H   0  0  0  0  0  0  0  0  0  0  0  0
  2  3  4  0
  3  4  4  0
  4  5  4  0
  5  6  4  0
  6  7  4  0
  2  7  4  0
  8  9  4  0
  5  9  4  0
 10 11  1  1
 10 12  1  0
 14 15  4  0
 15 16  4  0
 16 17  4  0
  2 17  1  0
 17 18  4  0
 14 19  4  0
 18 19  4  0
  1 19  1  0
 10 20  1  0
  8 20  4  0
  6 20  4  0
 12 21  4  0
 13 21  4  0
 13 22  4  0
 22 23  4  0
 23 24  4  0
 12 24  4  0
 10 25  1  0
 25 26  4  0
 26 27  4  0
 27 28  4  0
 28 29  4  0
 29 30  4  0
 25 30  4  0
  4 31  1  0
 32 31  1  1
 32 33  1  0
 33 34  1  0
 34 35  1  1
 34 36  1  0
 34 37  1  0
 32 38  2  0
 32 39  2  0
 15 40  1  0
 40 41  1  0
 41 42  1  0
 42 43  1  0
 43 44  4  0
 44 45  4  0
 45 46  4  0
 46 47  4  0
 47 48  4  0
 43 48  4  0
 48 49  1  0
 41 50  2  0
 14 51  2  0
  1 52  1  0
  1 53  1  0
  1 54  1  0
  3 55  1  0
  7 56  1  0
  8 57  1  0
  9 58  1  0
 11 59  1  0
 11 60  1  0
 11 61  1  0
 13 62  1  0
 16 63  1  0
 18 64  1  0
 22 65  1  0
 23 66  1  0
 24 67  1  0
 26 68  1  0
 27 69  1  0
 28 70  1  0
 29 71  1  0
 31 72  1  0
 33 73  1  0
 33 74  1  0
 40 75  1  0
 42 76  1  0
 44 77  1  0
 45 78  1  0
 46 79  1  0
 47 80  1  0
M  CHG  2  19   1  20   1
M  END
