7PRM_81I_A_401
     RDKit          3D

 32 36  0  0  0  0  0  0  0  0999 V2000
  121.8832   42.2310   -1.8347 C   0  0  0  0  0  0  0  0  0  0  0  0
  121.1923   41.7965   -2.9612 C   0  0  0  0  0  0  0  0  0  0  0  0
  120.9672   40.4641   -3.2277 C   0  0  0  0  0  0  0  0  0  0  0  0
  120.2668   40.0267   -4.3714 N   0  0  0  0  0  0  0  0  0  0  0  0
  120.2134   40.6263   -5.6601 C   0  0  0  0  0  0  0  0  0  0  0  0
  120.5291   41.8040   -5.9663 O   0  0  0  0  0  0  0  0  0  0  0  0
  119.7166   39.6360   -6.6252 C   0  0  0  0  0  0  0  0  0  0  0  0
  119.8737   38.3375   -5.8563 C   0  0  1  0  0  0  0  0  0  0  0  0
  121.2524   37.9368   -5.6961 N   0  0  0  0  0  0  0  0  0  0  0  0
  122.1501   38.4868   -6.6745 C   0  0  0  0  0  0  0  0  0  0  0  0
  121.5826   38.2364   -8.0488 C   0  0  0  0  0  0  0  0  0  0  0  0
  121.5517   36.7915   -8.2094 N   0  0  0  0  0  0  0  0  0  0  0  0
  121.1558   36.1525   -9.4154 C   0  0  0  0  0  0  0  0  0  0  0  0
  120.6523   34.9811   -9.4339 O   0  0  0  0  0  0  0  0  0  0  0  0
  121.3059   36.8092  -10.7064 C   0  0  0  0  0  0  0  0  0  0  0  0
  120.2887   36.9278  -11.5555 O   0  0  0  0  0  0  0  0  0  0  0  0
  120.6854   37.5538  -12.6362 C   0  0  0  0  0  0  0  0  0  0  0  0
  122.0296   37.8655  -12.4976 C   0  0  0  0  0  0  0  0  0  0  0  0
  122.4377   37.3892  -11.2566 C   0  0  0  0  0  0  0  0  0  0  0  0
  121.9517   36.0054   -7.0535 C   0  0  0  0  0  0  0  0  0  0  0  0
  121.2679   36.4940   -5.7980 C   0  0  0  0  0  0  0  0  0  0  0  0
  119.4333   38.8430   -4.4724 C   0  0  0  0  0  0  0  0  0  0  0  0
  121.4600   39.5530   -2.3213 C   0  0  0  0  0  0  0  0  0  0  0  0
  122.1565   39.9688   -1.1837 C   0  0  0  0  0  0  0  0  0  0  0  0
  122.3697   41.3052   -0.9375 C   0  0  0  0  0  0  0  0  0  0  0  0
  123.0875   41.8064    0.2282 C   0  0  0  0  0  0  0  0  0  0  0  0
  123.6685   40.9186    1.1223 C   0  0  0  0  0  0  0  0  0  0  0  0
  124.3375   41.4381    2.2109 C   0  0  0  0  0  0  0  0  0  0  0  0
  124.4423   42.8127    2.4311 C   0  0  0  0  0  0  0  0  0  0  0  0
  123.8589   43.6970    1.5332 C   0  0  0  0  0  0  0  0  0  0  0  0
  123.1770   43.1884    0.4242 C   0  0  0  0  0  0  0  0  0  0  0  0
  125.1121   43.2691    3.5183 F   0  0  0  0  0  0  0  0  0  0  0  0
  1  2  2  0
  2  3  1  0
  3  4  1  0
  4  5  1  0
  5  6  2  0
  5  7  1  0
  7  8  1  0
  8  9  1  1
  9 10  1  0
 10 11  1  0
 11 12  1  0
 12 13  1  0
 13 14  2  0
 13 15  1  0
 15 16  1  0
 16 17  1  0
 17 18  2  0
 18 19  1  0
 15 19  2  0
 12 20  1  0
 20 21  1  0
  9 21  1  0
  8 22  1  0
  4 22  1  0
  3 23  2  0
 23 24  1  0
  1 25  1  0
 24 25  2  0
 25 26  1  0
 26 27  2  0
 27 28  1  0
 28 29  2  0
 29 30  1  0
 30 31  2  0
 26 31  1  0
 29 32  1  0
M  END
$$$$
