1JJE_BYS_A_250
     RDKit          3D

 25 27  0  0  0  0  0  0  0  0999 V2000
   37.4487    8.2045   23.1231 C   0  0  1  0  0  0  0  0  0  0  0  0
   36.9385    7.7315   21.7768 C   0  0  0  0  0  0  0  0  0  0  0  0
   35.7208    7.4808   21.6440 O   0  0  0  0  0  0  0  0  0  0  0  0
   37.6705    7.5831   20.7741 O   0  0  0  0  0  0  0  0  0  0  0  0
   38.7178    7.4356   23.5418 C   0  0  0  0  0  0  0  0  0  0  0  0
   38.5472    5.9475   23.2763 C   0  0  0  0  0  0  0  0  0  0  0  0
   38.8915    5.4015   22.0417 C   0  0  0  0  0  0  0  0  0  0  0  0
   38.7169    4.0376   21.7682 C   0  0  0  0  0  0  0  0  0  0  0  0
   38.2297    3.1843   22.7758 C   0  0  0  0  0  0  0  0  0  0  0  0
   37.8669    3.7237   24.0033 C   0  0  0  0  0  0  0  0  0  0  0  0
   38.0630    5.0890   24.2711 C   0  0  0  0  0  0  0  0  0  0  0  0
   37.7687    9.7073   23.1268 C   0  0  1  0  0  0  0  0  0  0  0  0
   36.6762   10.5037   22.4705 C   0  0  0  0  0  0  0  0  0  0  0  0
   35.6235    9.9736   22.0452 O   0  0  0  0  0  0  0  0  0  0  0  0
   36.8225   11.7424   22.3086 O   0  0  0  0  0  0  0  0  0  0  0  0
   38.0078   10.1646   24.5906 C   0  0  0  0  0  0  0  0  0  0  0  0
   38.4569   11.6093   24.5121 C   0  0  0  0  0  0  0  0  0  0  0  0
   37.5262   12.6541   24.2971 C   0  0  0  0  0  0  0  0  0  0  0  0
   38.0603   13.9408   24.2694 C   0  0  0  0  0  0  0  0  0  0  0  0
   37.4336   15.0943   24.0164 O   0  0  0  0  0  0  0  0  0  0  0  0
   38.4020   16.1543   24.0514 C   0  0  0  0  0  0  0  0  0  0  0  0
   39.6619   15.5038   24.3142 O   0  0  0  0  0  0  0  0  0  0  0  0
   39.4184   14.1892   24.3975 C   0  0  0  0  0  0  0  0  0  0  0  0
   40.3400   13.1611   24.5770 C   0  0  0  0  0  0  0  0  0  0  0  0
   39.8182   11.8513   24.6610 C   0  0  0  0  0  0  0  0  0  0  0  0
  1  2  1  0
  2  3  2  0
  2  4  1  0
  1  5  1  6
  5  6  1  0
  6  7  2  0
  7  8  1  0
  8  9  2  0
  9 10  1  0
  6 11  1  0
 10 11  2  0
  1 12  1  0
 12 13  1  0
 13 14  2  0
 13 15  1  0
 12 16  1  1
 16 17  1  0
 17 18  2  0
 18 19  1  0
 19 20  1  0
 20 21  1  0
 21 22  1  0
 19 23  2  0
 22 23  1  0
 23 24  1  0
 17 25  1  0
 24 25  2  0
M  END
