1JJE_BYS_A_250
     RDKit          3D

 25 27  0  0  0  0  0  0  0  0999 V2000
   37.9449    8.1598   23.0881 C   0  0  1  0  0  0  0  0  0  0  0  0
   37.5166    7.5992   21.7470 C   0  0  0  0  0  0  0  0  0  0  0  0
   36.3912    7.0641   21.6452 O   0  0  0  0  0  0  0  0  0  0  0  0
   38.2270    7.6479   20.7193 O   0  0  0  0  0  0  0  0  0  0  0  0
   39.3757    7.7135   23.4496 C   0  0  0  0  0  0  0  0  0  0  0  0
   39.5592    6.2327   23.1539 C   0  0  0  0  0  0  0  0  0  0  0  0
   39.9812    5.8058   21.8967 C   0  0  0  0  0  0  0  0  0  0  0  0
   40.1307    4.4446   21.5960 C   0  0  0  0  0  0  0  0  0  0  0  0
   39.8991    3.4830   22.5972 C   0  0  0  0  0  0  0  0  0  0  0  0
   39.4605    3.8991   23.8477 C   0  0  0  0  0  0  0  0  0  0  0  0
   39.3313    5.2669   24.1420 C   0  0  0  0  0  0  0  0  0  0  0  0
   37.8936    9.6952   23.1181 C   0  0  1  0  0  0  0  0  0  0  0  0
   36.6190   10.2146   22.5145 C   0  0  0  0  0  0  0  0  0  0  0  0
   35.7107    9.4529   22.1087 O   0  0  0  0  0  0  0  0  0  0  0  0
   36.4569   11.4543   22.3780 O   0  0  0  0  0  0  0  0  0  0  0  0
   38.0669   10.1733   24.5845 C   0  0  0  0  0  0  0  0  0  0  0  0
   38.1518   11.6847   24.5271 C   0  0  0  0  0  0  0  0  0  0  0  0
   36.9900   12.4772   24.3655 C   0  0  0  0  0  0  0  0  0  0  0  0
   37.1972   13.8550   24.3525 C   0  0  0  0  0  0  0  0  0  0  0  0
   36.3027   14.8270   24.1463 O   0  0  0  0  0  0  0  0  0  0  0  0
   36.9880   16.0888   24.1773 C   0  0  0  0  0  0  0  0  0  0  0  0
   38.3759   15.7576   24.3862 O   0  0  0  0  0  0  0  0  0  0  0  0
   38.4592   14.4220   24.4453 C   0  0  0  0  0  0  0  0  0  0  0  0
   39.6069   13.6440   24.5721 C   0  0  0  0  0  0  0  0  0  0  0  0
   39.4191   12.2458   24.6404 C   0  0  0  0  0  0  0  0  0  0  0  0
  1  2  1  0
  2  3  2  0
  2  4  1  0
  1  5  1  6
  5  6  1  0
  6  7  2  0
  7  8  1  0
  8  9  2  0
  9 10  1  0
  6 11  1  0
 10 11  2  0
  1 12  1  0
 12 13  1  0
 13 14  2  0
 13 15  1  0
 12 16  1  1
 16 17  1  0
 17 18  2  0
 18 19  1  0
 19 20  1  0
 20 21  1  0
 21 22  1  0
 19 23  2  0
 22 23  1  0
 23 24  1  0
 17 25  1  0
 24 25  2  0
M  END
