7K0V_VQP_B_801
     RDKit          3D

 59 61  0  0  0  0  0  0  0  0999 V2000
    6.7165    3.5080  -23.3208 C   0  0  0  0  0  0  0  0  0  0  0  0
    6.2315    2.7397  -24.3646 C   0  0  0  0  0  0  0  0  0  0  0  0
    5.4084    1.6678  -24.0625 C   0  0  0  0  0  0  0  0  0  0  0  0
    5.1240    1.3545  -22.7421 C   0  0  0  0  0  0  0  0  0  0  0  0
    2.2152    1.1046  -23.5313 C   0  0  0  0  0  0  0  0  0  0  0  0
    0.8492   -0.8171  -22.0396 C   0  0  0  0  0  0  0  0  0  0  0  0
   -2.0732   -2.7883  -20.6761 C   0  0  0  0  0  0  0  0  0  0  0  0
    7.3718    3.6852  -28.7412 C   0  0  0  0  0  0  0  0  0  0  0  0
    7.2616    4.8608  -31.0118 C   0  0  2  0  0  0  0  0  0  0  0  0
    5.3597    1.8820  -20.2514 C   0  0  0  0  0  0  0  0  0  0  0  0
    0.8431    1.0121  -23.6385 C   0  0  0  0  0  0  0  0  0  0  0  0
    0.1448    0.0567  -22.8969 C   0  0  0  0  0  0  0  0  0  0  0  0
    2.2396   -0.7115  -21.9369 C   0  0  0  0  0  0  0  0  0  0  0  0
    0.0614   -1.7945  -21.2805 C   0  0  0  0  0  0  0  0  0  0  0  0
   -1.8731   -0.9247  -22.2832 C   0  0  0  0  0  0  0  0  0  0  0  0
    5.6350    2.1385  -21.7069 C   0  0  0  0  0  0  0  0  0  0  0  0
    6.8287    2.3366  -26.7295 C   0  0  0  0  0  0  0  0  0  0  0  0
    6.9270    3.6063  -30.2023 C   0  0  0  0  0  0  0  0  0  0  0  0
    5.9719    5.4533  -31.5763 C   0  0  0  0  0  0  0  0  0  0  0  0
    6.4320    3.2124  -22.0058 C   0  0  0  0  0  0  0  0  0  0  0  0
    8.2319    4.5710  -32.1672 C   0  0  0  0  0  0  0  0  0  0  0  0
    7.9202    5.8489  -30.0564 C   0  0  0  0  0  0  0  0  0  0  0  0
    2.8953    0.2366  -22.6872 C   0  0  0  0  0  0  0  0  0  0  0  0
    2.9787   -1.5019  -21.1244 F   0  0  0  0  0  0  0  0  0  0  0  0
    7.4977    4.5578  -23.6001 F   0  0  0  0  0  0  0  0  0  0  0  0
   -1.2760   -1.8030  -21.4345 N   0  0  0  0  0  4  0  0  0  0  0  0
   -1.2072   -0.0533  -22.9775 N   0  0  0  0  0  0  0  0  0  0  0  0
    6.5500    3.1378  -25.6762 N   0  0  0  0  0  0  0  0  0  0  0  0
    6.5123    2.7761  -27.9681 N   0  0  0  0  0  0  0  0  0  0  0  0
    4.2698    0.2698  -22.5285 N   0  0  0  0  0  0  0  0  0  0  0  0
    0.5812   -2.5955  -20.5325 O   0  0  0  0  0  0  0  0  0  0  0  0
    7.3499    1.2518  -26.5780 O   0  0  0  0  0  0  0  0  0  0  0  0
    5.0048    1.0996  -24.8237 H   0  0  0  0  0  0  0  0  0  0  0  0
    2.7324    1.8136  -24.0744 H   0  0  0  0  0  0  0  0  0  0  0  0
   -1.4223   -3.3825  -20.0694 H   0  0  0  0  0  0  0  0  0  0  0  0
   -2.7737   -2.2750  -20.0510 H   0  0  0  0  0  0  0  0  0  0  0  0
   -2.6011   -3.4211  -21.3586 H   0  0  0  0  0  0  0  0  0  0  0  0
    8.3947    3.3836  -28.6539 H   0  0  0  0  0  0  0  0  0  0  0  0
    7.2869    4.6869  -28.3748 H   0  0  0  0  0  0  0  0  0  0  0  0
    4.7303    1.0223  -20.1536 H   0  0  0  0  0  0  0  0  0  0  0  0
    6.2829    1.7085  -19.7390 H   0  0  0  0  0  0  0  0  0  0  0  0
    4.8701    2.7329  -19.8257 H   0  0  0  0  0  0  0  0  0  0  0  0
    0.3315    1.6501  -24.2680 H   0  0  0  0  0  0  0  0  0  0  0  0
   -2.9001   -0.9520  -22.3796 H   0  0  0  0  0  0  0  0  0  0  0  0
    5.8672    3.4608  -30.2262 H   0  0  0  0  0  0  0  0  0  0  0  0
    7.4591    2.7927  -30.6494 H   0  0  0  0  0  0  0  0  0  0  0  0
    5.5194    4.7510  -32.2447 H   0  0  0  0  0  0  0  0  0  0  0  0
    5.2971    5.6680  -30.7742 H   0  0  0  0  0  0  0  0  0  0  0  0
    6.1959    6.3560  -32.1053 H   0  0  0  0  0  0  0  0  0  0  0  0
    6.8177    3.7977  -21.2483 H   0  0  0  0  0  0  0  0  0  0  0  0
    7.7811    3.8776  -32.8462 H   0  0  0  0  0  0  0  0  0  0  0  0
    8.4545    5.4816  -32.6830 H   0  0  0  0  0  0  0  0  0  0  0  0
    9.1358    4.1518  -31.7772 H   0  0  0  0  0  0  0  0  0  0  0  0
    7.2541    6.0595  -29.2460 H   0  0  0  0  0  0  0  0  0  0  0  0
    8.8251    5.4255  -29.6734 H   0  0  0  0  0  0  0  0  0  0  0  0
    8.1438    6.7554  -30.5791 H   0  0  0  0  0  0  0  0  0  0  0  0
    6.5723    4.1074  -25.8460 H   0  0  0  0  0  0  0  0  0  0  0  0
    5.6669    2.4735  -28.3716 H   0  0  0  0  0  0  0  0  0  0  0  0
    4.6943   -0.5670  -22.2309 H   0  0  0  0  0  0  0  0  0  0  0  0
  1  2  4  0
  2  3  4  0
  3  4  4  0
  5 11  4  0
 11 12  4  0
  6 12  4  0
  6 13  4  0
  6 14  4  0
  4 16  4  0
 10 16  1  0
  9 18  1  6
  8 18  1  0
  9 19  1  0
  1 20  4  0
 16 20  4  0
  9 21  1  0
  9 22  1  0
  5 23  4  0
 13 23  4  0
 13 24  1  0
  1 25  1  0
 14 26  4  0
 15 26  4  0
  7 26  1  0
 12 27  4  0
 15 27  4  0
 17 28  1  0
  2 28  1  0
  8 29  1  0
 17 29  1  0
  4 30  1  0
 23 30  1  0
 14 31  2  0
 17 32  2  0
  3 33  1  0
  5 34  1  0
  7 35  1  0
  7 36  1  0
  7 37  1  0
  8 38  1  0
  8 39  1  0
 10 40  1  0
 10 41  1  0
 10 42  1  0
 11 43  1  0
 15 44  1  0
 18 45  1  0
 18 46  1  0
 19 47  1  0
 19 48  1  0
 19 49  1  0
 20 50  1  0
 21 51  1  0
 21 52  1  0
 21 53  1  0
 22 54  1  0
 22 55  1  0
 22 56  1  0
 28 57  1  0
 29 58  1  0
 30 59  1  0
M  CHG  1  26   1
M  END
