1W1P_GIO_B_1501
     RDKit          3D

 11 12  0  0  0  0  0  0  0  0999 V2000
   44.0082   57.8165   82.6930 O   0  0  0  0  0  0  0  0  0  0  0  0
   43.4967   56.8781   82.0305 C   0  0  0  0  0  0  0  0  0  0  0  0
   43.8655   56.7417   80.6205 C   0  0  2  0  0  0  0  0  0  0  0  0
   43.7635   58.0602   79.8627 C   0  0  0  0  0  0  0  0  0  0  0  0
   43.8504   57.5694   78.4320 C   0  0  0  0  0  0  0  0  0  0  0  0
   43.0116   56.3028   78.4469 C   0  0  0  0  0  0  0  0  0  0  0  0
   42.9670   55.9055   79.8547 N   0  0  0  0  0  0  0  0  0  0  0  0
   42.2312   54.9061   80.5056 C   0  0  0  0  0  0  0  0  0  0  0  0
   41.8437   53.8954   79.8553 O   0  0  0  0  0  0  0  0  0  0  0  0
   41.8873   54.9834   81.9257 C   0  0  0  0  0  0  0  0  0  0  0  0
   42.5961   55.9949   82.6488 N   0  0  0  0  0  0  0  0  0  0  0  0
  1  2  2  0
  2  3  1  0
  3  4  1  6
  4  5  1  0
  5  6  1  0
  3  7  1  0
  6  7  1  0
  7  8  1  0
  8  9  2  0
  8 10  1  0
  2 11  1  0
 10 11  1  0
M  END
$$$$
