1W1P_GIO_B_1501
     RDKit          3D

 11 12  0  0  0  0  0  0  0  0999 V2000
   43.2094   74.2933   68.7604 O   0  0  0  0  0  0  0  0  0  0  0  0
   43.0465   74.1943   67.5175 C   0  0  0  0  0  0  0  0  0  0  0  0
   41.7349   74.5286   66.9600 C   0  0  2  0  0  0  0  0  0  0  0  0
   40.5942   73.8539   67.7127 C   0  0  0  0  0  0  0  0  0  0  0  0
   39.4485   74.0796   66.7475 C   0  0  0  0  0  0  0  0  0  0  0  0
   40.0873   73.8485   65.3886 C   0  0  0  0  0  0  0  0  0  0  0  0
   41.5210   74.0316   65.6183 N   0  0  0  0  0  0  0  0  0  0  0  0
   42.6226   73.8082   64.7813 C   0  0  0  0  0  0  0  0  0  0  0  0
   42.4712   73.8525   63.5284 O   0  0  0  0  0  0  0  0  0  0  0  0
   43.9593   73.5217   65.3027 C   0  0  0  0  0  0  0  0  0  0  0  0
   44.1107   73.7716   66.7038 N   0  0  0  0  0  0  0  0  0  0  0  0
  1  2  2  0
  2  3  1  0
  3  4  1  1
  4  5  1  0
  5  6  1  0
  3  7  1  0
  6  7  1  0
  7  8  1  0
  8  9  2  0
  8 10  1  0
  2 11  1  0
 10 11  1  0
M  END
$$$$
