1W1P_GIO_B_1501
     RDKit          3D

 11 12  0  0  0  0  0  0  0  0999 V2000
   41.6194   30.1650   90.4816 O   0  0  0  0  0  0  0  0  0  0  0  0
   42.2583   29.6166   91.4156 C   0  0  0  0  0  0  0  0  0  0  0  0
   43.5513   29.0039   91.1065 C   0  0  2  0  0  0  0  0  0  0  0  0
   43.4866   28.0943   89.8853 C   0  0  0  0  0  0  0  0  0  0  0  0
   44.8054   27.3594   90.0122 C   0  0  0  0  0  0  0  0  0  0  0  0
   44.9180   27.1014   91.5051 C   0  0  0  0  0  0  0  0  0  0  0  0
   44.0247   28.0849   92.1186 N   0  0  0  0  0  0  0  0  0  0  0  0
   43.6019   28.2419   93.4454 C   0  0  0  0  0  0  0  0  0  0  0  0
   44.3265   27.8092   94.3847 O   0  0  0  0  0  0  0  0  0  0  0  0
   42.3399   28.8945   93.7952 C   0  0  0  0  0  0  0  0  0  0  0  0
   41.7250   29.6041   92.7151 N   0  0  0  0  0  0  0  0  0  0  0  0
  1  2  2  0
  2  3  1  0
  3  4  1  6
  4  5  1  0
  5  6  1  0
  3  7  1  0
  6  7  1  0
  7  8  1  0
  8  9  2  0
  8 10  1  0
  2 11  1  0
 10 11  1  0
M  END
$$$$
