1W1P_GIO_B_1501
     RDKit          3D

 11 12  0  0  0  0  0  0  0  0999 V2000
   44.1482   73.3526   51.1311 O   0  0  0  0  0  0  0  0  0  0  0  0
   44.7345   74.3585   51.6063 C   0  0  0  0  0  0  0  0  0  0  0  0
   43.9189   75.4734   52.0906 C   0  0  2  0  0  0  0  0  0  0  0  0
   42.8506   75.8911   51.0870 C   0  0  0  0  0  0  0  0  0  0  0  0
   42.4213   77.2215   51.6711 C   0  0  0  0  0  0  0  0  0  0  0  0
   43.7318   77.8420   52.1243 C   0  0  0  0  0  0  0  0  0  0  0  0
   44.6506   76.7105   52.2557 N   0  0  0  0  0  0  0  0  0  0  0  0
   46.0299   76.6691   52.4998 C   0  0  0  0  0  0  0  0  0  0  0  0
   46.5834   77.6279   53.1072 O   0  0  0  0  0  0  0  0  0  0  0  0
   46.8689   75.5479   52.0758 C   0  0  0  0  0  0  0  0  0  0  0  0
   46.1378   74.3895   51.6611 N   0  0  0  0  0  0  0  0  0  0  0  0
  1  2  2  0
  2  3  1  0
  3  4  1  6
  4  5  1  0
  5  6  1  0
  3  7  1  0
  6  7  1  0
  7  8  1  0
  8  9  2  0
  8 10  1  0
  2 11  1  0
 10 11  1  0
M  END
$$$$
