1W1P_GIO_B_1501
     RDKit          3D

 11 12  0  0  0  0  0  0  0  0999 V2000
   24.2847   63.5461   65.6879 O   0  0  0  0  0  0  0  0  0  0  0  0
   23.8099   62.5406   66.2752 C   0  0  0  0  0  0  0  0  0  0  0  0
   24.7264   61.4693   66.6691 C   0  0  2  0  0  0  0  0  0  0  0  0
   25.6512   61.0483   65.5332 C   0  0  0  0  0  0  0  0  0  0  0  0
   26.2079   59.7536   66.0892 C   0  0  0  0  0  0  0  0  0  0  0  0
   25.0001   59.1103   66.7490 C   0  0  0  0  0  0  0  0  0  0  0  0
   24.0707   60.2173   66.9784 N   0  0  0  0  0  0  0  0  0  0  0  0
   22.7411   60.2254   67.4209 C   0  0  0  0  0  0  0  0  0  0  0  0
   22.3164   59.2727   68.1327 O   0  0  0  0  0  0  0  0  0  0  0  0
   21.8101   61.3045   67.0898 C   0  0  0  0  0  0  0  0  0  0  0  0
   22.4315   62.4689   66.5363 N   0  0  0  0  0  0  0  0  0  0  0  0
  1  2  2  0
  2  3  1  0
  3  4  1  6
  4  5  1  0
  5  6  1  0
  3  7  1  0
  6  7  1  0
  7  8  1  0
  8  9  2  0
  8 10  1  0
  2 11  1  0
 10 11  1  0
M  END
$$$$
