7CL8_TES_A_505
     RDKit          3D

 21 24  0  0  0  0  0  0  0  0999 V2000
   34.6525   -0.8089   -6.3879 C   0  0  0  0  0  0  0  0  0  0  0  0
   35.8542   -0.9378   -5.4792 C   0  0  0  0  0  0  0  0  0  0  0  0
   36.8505    0.0318   -6.0757 C   0  0  0  0  0  0  0  0  0  0  0  0
   37.3745    0.9456   -5.4059 O   0  0  0  0  0  0  0  0  0  0  0  0
   37.1379   -0.2008   -7.4953 C   0  0  0  0  0  0  0  0  0  0  0  0
   36.2143   -0.7541   -8.2429 C   0  0  0  0  0  0  0  0  0  0  0  0
   36.5191   -0.9923   -9.7049 C   0  0  0  0  0  0  0  0  0  0  0  0
   36.2800   -2.4504  -10.0350 C   0  0  0  0  0  0  0  0  0  0  0  0
   34.9583   -2.9724   -9.5276 C   0  0  2  0  0  0  0  0  0  0  0  0
   34.7968   -2.6698   -8.0851 C   0  0  1  0  0  0  0  0  0  0  0  0
   34.8706   -1.1845   -7.8014 C   0  0  1  0  0  0  0  0  0  0  0  0
   33.6002   -3.3485   -7.4913 C   0  0  0  0  0  0  0  0  0  0  0  0
   33.8150   -4.8583   -7.6686 C   0  0  0  0  0  0  0  0  0  0  0  0
   33.7521   -5.1079   -9.1316 C   0  0  1  0  0  0  0  0  0  0  0  0
   35.0004   -4.4646   -9.7441 C   0  0  1  0  0  0  0  0  0  0  0  0
   34.8420   -4.9111  -11.1546 C   0  0  0  0  0  0  0  0  0  0  0  0
   34.4691   -6.3694  -10.9868 C   0  0  0  0  0  0  0  0  0  0  0  0
   34.0210   -6.5338   -9.5313 C   0  0  2  0  0  0  0  0  0  0  0  0
   32.8750   -7.3300   -9.4900 O   0  0  0  0  0  0  0  0  0  0  0  0
   32.4865   -4.6699   -9.7847 C   0  0  0  0  0  0  0  0  0  0  0  0
   33.8625   -0.4055   -8.6188 C   0  0  0  0  0  0  0  0  0  0  0  0
  1  2  1  6
  2  3  1  1
  3  4  2  0
  3  5  1  0
  5  6  2  0
  7  6  1  6
  8  7  1  1
  9  8  1  1
  9 10  1  0
  1 11  1  0
 11  6  1  6
 10 11  1  0
 10 12  1  6
 12 13  1  1
 13 14  1  6
  9 15  1  0
 14 15  1  0
 15 16  1  6
 17 16  1  6
 14 18  1  0
 17 18  1  0
 18 19  1  6
 14 20  1  6
 21 11  1  1
M  END
$$$$
