
     RDKit          3D

 30 34  0  0  0  0  0  0  0  0999 V2000
   16.9476  -12.8432   22.5924 O   0  0  0  0  0  0  0  0  0  0  0  0
   17.6612  -12.7614   21.6014 C   0  0  0  0  0  0  0  0  0  0  0  0
   18.6375  -13.6477   21.2403 N   0  0  0  0  0  0  0  0  0  0  0  0
   19.0223  -14.7880   22.0444 C   0  0  0  0  0  0  0  0  0  0  0  0
   19.7580  -14.3570   23.2940 C   0  0  0  0  0  0  0  0  0  0  0  0
   19.0797  -14.2526   24.5193 C   0  0  0  0  0  0  0  0  0  0  0  0
   19.7529  -13.8268   25.6654 C   0  0  0  0  0  0  0  0  0  0  0  0
   21.1004  -13.4982   25.5866 C   0  0  0  0  0  0  0  0  0  0  0  0
   21.7423  -13.0830   26.6863 F   0  0  0  0  0  0  0  0  0  0  0  0
   21.7882  -13.5857   24.3826 C   0  0  0  0  0  0  0  0  0  0  0  0
   21.1179  -14.0122   23.2345 C   0  0  0  0  0  0  0  0  0  0  0  0
   19.2620  -13.3045   20.0780 C   0  0  0  0  0  0  0  0  0  0  0  0
   20.2027  -13.8787   19.5518 O   0  0  0  0  0  0  0  0  0  0  0  0
   18.5646  -12.1148   19.4886 C   0  0  1  0  0  0  0  0  0  0  0  0
   17.5955  -12.5463   18.3962 C   0  0  1  0  0  0  0  0  0  0  0  0
   16.2298  -12.2062   18.8584 N   0  0  0  0  0  0  0  0  0  0  0  0
   15.4751  -11.6833   17.7029 C   0  0  0  0  0  0  0  0  0  0  0  0
   16.3690  -11.8914   16.4899 C   0  0  0  0  0  0  0  0  0  0  0  0
   17.7654  -11.8145   17.0743 C   0  0  0  0  0  0  0  0  0  0  0  0
   16.3754  -11.2228   19.9500 C   0  0  1  0  0  0  0  0  0  0  0  0
   15.1872  -11.1163   20.8858 C   0  0  0  0  0  0  0  0  0  0  0  0
   14.7976   -9.9001   21.4641 C   0  0  0  0  0  0  0  0  0  0  0  0
   13.6479   -9.8176   22.2520 C   0  0  0  0  0  0  0  0  0  0  0  0
   12.8576  -10.9516   22.4795 C   0  0  0  0  0  0  0  0  0  0  0  0
   13.2548  -12.1753   21.9251 C   0  0  0  0  0  0  0  0  0  0  0  0
   14.4059  -12.2551   21.1367 C   0  0  0  0  0  0  0  0  0  0  0  0
   11.6191  -10.8479   23.2568 C   0  0  0  0  0  0  0  0  0  0  0  0
   10.9622  -11.9410   23.5727 N   0  0  0  0  0  4  0  0  0  0  0  0
   11.1932   -9.6588   23.6229 N   0  0  0  0  0  0  0  0  0  0  0  0
   17.6875  -11.6053   20.6275 C   0  0  1  0  0  0  0  0  0  0  0  0
  1  2  2  0
  2  3  1  0
  3  4  1  0
  4  5  1  0
  5  6  4  0
  6  7  4  0
  7  8  4  0
  8  9  1  0
  8 10  4  0
  5 11  4  0
 10 11  4  0
  3 12  1  0
 12 13  2  0
 14 12  1  1
 14 15  1  0
 15 16  1  0
 16 17  1  0
 17 18  1  0
 15 19  1  6
 18 19  1  0
 16 20  1  0
 20 21  1  1
 21 22  4  0
 22 23  4  0
 23 24  4  0
 24 25  4  0
 21 26  4  0
 25 26  4  0
 24 27  1  0
 27 28  2  0
 27 29  1  0
 30  2  1  1
 14 30  1  0
 20 30  1  0
M  CHG  1  28   1
M  END
