7SSM_B7L_A_4000
     RDKit          3D

 25 28  0  0  0  0  0  0  0  0999 V2000
   -1.8240  -19.4833    8.9770 C   0  0  0  0  0  0  0  0  0  0  0  0
   -8.4288  -20.6948    2.1525 C   0  0  0  0  0  0  0  0  0  0  0  0
   -1.8000  -23.1983    9.5148 C   0  0  0  0  0  0  0  0  0  0  0  0
   -8.3946  -19.3380    3.8867 C   0  0  0  0  0  0  0  0  0  0  0  0
   -9.4895  -17.4456    2.9389 C   0  0  0  0  0  0  0  0  0  0  0  0
   -9.3684  -16.7311    4.1763 C   0  0  0  0  0  0  0  0  0  0  0  0
   -8.7588  -17.4168    5.1576 C   0  0  0  0  0  0  0  0  0  0  0  0
   -2.1666  -21.8626    9.0543 C   0  0  0  0  0  0  0  0  0  0  0  0
   -1.4332  -20.7235    9.4096 C   0  0  0  0  0  0  0  0  0  0  0  0
   -8.0203  -20.6096    3.4694 C   0  0  0  0  0  0  0  0  0  0  0  0
   -7.4048  -21.5427    4.3521 C   0  0  0  0  0  0  0  0  0  0  0  0
   -7.0317  -21.2667    5.7180 N   0  0  0  0  0  0  0  0  0  0  0  0
   -7.1435  -22.7037    3.9349 O   0  0  0  0  0  0  0  0  0  0  0  0
   -6.2810  -22.3440    6.3079 C   0  0  0  0  0  0  0  0  0  0  0  0
   -5.0907  -22.0161    7.0628 C   0  0  0  0  0  0  0  0  0  0  0  0
   -4.1654  -22.5189    7.7661 O   0  0  0  0  0  0  0  0  0  0  0  0
   -3.2841  -21.7011    8.2608 C   0  0  0  0  0  0  0  0  0  0  0  0
   -3.6303  -20.4590    7.8540 C   0  0  0  0  0  0  0  0  0  0  0  0
   -4.7524  -20.5961    7.0993 C   0  0  0  0  0  0  0  0  0  0  0  0
   -2.9545  -19.2690    8.1640 C   0  0  0  0  0  0  0  0  0  0  0  0
   -0.7353  -23.4670   10.3511 O   0  0  0  0  0  0  0  0  0  0  0  0
   -2.4845  -24.1949    9.1390 O   0  0  0  0  0  0  0  0  0  0  0  0
   -8.9924  -19.5276    1.8774 N   0  0  0  0  0  0  0  0  0  0  0  0
   -8.9945  -18.6861    2.8901 N   0  0  0  0  0  0  0  0  0  0  0  0
   -8.2714  -18.6578    5.0863 N   0  0  0  0  0  0  0  0  0  0  0  0
  5  6  2  0
  6  7  1  0
  3  8  1  0
  1  9  2  0
  8  9  1  0
  2 10  1  0
  4 10  2  0
 10 11  1  0
 11 12  1  0
 11 13  2  0
 12 14  1  0
 14 15  1  0
 15 16  1  0
 16 17  1  0
  8 17  2  0
 17 18  1  0
 15 19  2  0
 18 19  1  0
 18 20  2  0
  1 20  1  0
  3 21  1  0
  3 22  2  0
  2 23  2  0
 23 24  1  0
  4 24  1  0
  5 24  1  0
  4 25  1  0
  7 25  2  0
M  END
$$$$
