7NR8_UOE_A_408
     RDKit          3D

 84 89  0  0  0  0  0  0  0  0999 V2000
    3.8858    5.1852   49.7165 C   0  0  2  0  0  0  0  0  0  0  0  0
    4.0687    6.6117   49.1816 C   0  0  2  0  0  0  0  0  0  0  0  0
    7.1963    6.2040   47.1542 C   0  0  0  0  0  0  0  0  0  0  0  0
    8.2319    5.5693   46.4709 C   0  0  0  0  0  0  0  0  0  0  0  0
    8.9839    6.3157   45.5482 C   0  0  0  0  0  0  0  0  0  0  0  0
    8.7036    7.6875   45.3279 C   0  0  0  0  0  0  0  0  0  0  0  0
    6.9046    7.5259   46.9185 C   0  0  0  0  0  0  0  0  0  0  0  0
    5.7661    7.8681   47.7294 C   0  0  0  0  0  0  0  0  0  0  0  0
    9.4575    8.4711   44.3245 C   0  0  0  0  0  0  0  0  0  0  0  0
    9.4508   10.2997   42.8023 C   0  0  0  0  0  0  0  0  0  0  0  0
    6.3424   13.4824   44.3070 C   0  0  1  0  0  0  0  0  0  0  0  0
    5.2273   11.5560   43.6464 C   0  0  2  0  0  0  0  0  0  0  0  0
    6.4886   10.9033   43.0635 C   0  0  1  0  0  0  0  0  0  0  0  0
   11.4101    8.9898   43.0125 C   0  0  0  0  0  0  0  0  0  0  0  0
   10.7948    8.1893   43.9793 C   0  0  0  0  0  0  0  0  0  0  0  0
    2.9548    7.0437   48.2551 C   0  0  0  0  0  0  0  0  0  0  0  0
    2.7181    6.6755   45.1986 C   0  0  1  0  0  0  0  0  0  0  0  0
    3.9989   10.0882   43.1021 C   0  0  0  0  0  0  0  0  0  0  0  0
    3.8314   11.3747   43.6141 C   0  0  0  0  0  0  0  0  0  0  0  0
    3.2392   11.5486   44.8812 C   0  0  0  0  0  0  0  0  0  0  0  0
    2.1126   13.8303   44.8739 C   0  0  2  0  0  0  0  0  0  0  0  0
    4.3464   15.8584   44.5292 C   0  0  1  0  0  0  0  0  0  0  0  0
    5.3598    6.7350   48.4948 N   0  0  0  0  0  0  0  0  0  0  0  0
    6.2431    5.6101   48.1490 C   0  0  2  0  0  0  0  0  0  0  0  0
    7.6302    8.2944   46.0135 C   0  0  0  0  0  0  0  0  0  0  0  0
    5.1846    8.9849   47.7446 O   0  0  0  0  0  0  0  0  0  0  0  0
    8.8331    9.5242   43.7319 N   0  0  0  0  0  0  0  0  0  0  0  0
    8.7715   11.4130   42.1965 N   0  0  0  0  0  0  0  0  0  0  0  0
    7.4980   11.9895   42.6537 C   0  0  2  0  0  0  0  0  0  0  0  0
    7.7049   13.0020   43.7912 C   0  0  2  0  0  0  0  0  0  0  0  0
    5.5518   12.3903   44.7439 O   0  0  0  0  0  0  0  0  0  0  0  0
   10.7325   10.0209   42.4455 N   0  0  0  0  0  0  0  0  0  0  0  0
   11.7530    6.9486   44.7846 Cl  0  0  0  0  0  0  0  0  0  0  0  0
    1.7973    6.5464   48.3675 O   0  0  0  0  0  0  0  0  0  0  0  0
    3.2314    8.0021   47.2205 N   0  0  0  0  0  0  0  0  0  0  0  0
    2.5173    8.0117   45.9389 C   0  0  1  0  0  0  0  0  0  0  0  0
    1.8277    5.7022   45.6771 O   0  0  0  0  0  0  0  0  0  0  0  0
    2.9821    9.1756   45.0934 C   0  0  0  0  0  0  0  0  0  0  0  0
    3.5778    8.9819   43.8383 C   0  0  0  0  0  0  0  0  0  0  0  0
    2.8375   10.4421   45.5712 N   0  0  0  0  0  0  0  0  0  0  0  0
    3.0552   12.8647   45.4624 N   0  0  0  0  0  0  0  0  0  0  0  0
    2.2230   15.2075   45.5503 C   0  0  2  0  0  0  0  0  0  0  0  0
    3.6309   15.5879   45.7897 N   0  0  0  0  0  0  0  0  0  0  0  0
    4.3643   14.6166   46.6429 C   0  0  2  0  0  0  0  0  0  0  0  0
    3.7021   13.2254   46.7345 C   0  0  2  0  0  0  0  0  0  0  0  0
    2.9114    4.7604   49.3929 H   0  0  0  0  0  0  0  0  0  0  0  0
    3.9279    5.1892   50.8285 H   0  0  0  0  0  0  0  0  0  0  0  0
    4.7047    4.5335   49.3370 H   0  0  0  0  0  0  0  0  0  0  0  0
    4.0545    7.2916   50.0610 H   0  0  0  0  0  0  0  0  0  0  0  0
    8.4435    4.5216   46.6381 H   0  0  0  0  0  0  0  0  0  0  0  0
    9.7638    5.8209   44.9856 H   0  0  0  0  0  0  0  0  0  0  0  0
    6.5121   14.1590   45.1705 H   0  0  0  0  0  0  0  0  0  0  0  0
    5.8142   14.0770   43.5255 H   0  0  0  0  0  0  0  0  0  0  0  0
    4.5484   10.7525   44.0038 H   0  0  0  0  0  0  0  0  0  0  0  0
    4.6738   12.1205   42.8616 H   0  0  0  0  0  0  0  0  0  0  0  0
    6.9147   10.2257   43.8300 H   0  0  0  0  0  0  0  0  0  0  0  0
    6.2166   10.2931   42.1759 H   0  0  0  0  0  0  0  0  0  0  0  0
   12.4374    8.8063   42.7228 H   0  0  0  0  0  0  0  0  0  0  0  0
    2.5673    6.8171   44.1020 H   0  0  0  0  0  0  0  0  0  0  0  0
    3.7566    6.3092   45.3523 H   0  0  0  0  0  0  0  0  0  0  0  0
    4.4565    9.9489   42.1312 H   0  0  0  0  0  0  0  0  0  0  0  0
    4.1575   12.2156   43.0170 H   0  0  0  0  0  0  0  0  0  0  0  0
    1.0732   13.4508   44.9822 H   0  0  0  0  0  0  0  0  0  0  0  0
    2.3310   13.9535   43.7908 H   0  0  0  0  0  0  0  0  0  0  0  0
    4.7108   14.9182   44.0624 H   0  0  0  0  0  0  0  0  0  0  0  0
    3.6898   16.3970   43.8134 H   0  0  0  0  0  0  0  0  0  0  0  0
    5.2181   16.5158   44.7277 H   0  0  0  0  0  0  0  0  0  0  0  0
    6.7890    5.2515   49.0449 H   0  0  0  0  0  0  0  0  0  0  0  0
    5.6673    4.7864   47.6783 H   0  0  0  0  0  0  0  0  0  0  0  0
    7.3726    9.3330   45.8485 H   0  0  0  0  0  0  0  0  0  0  0  0
    9.2487   11.8875   41.3974 H   0  0  0  0  0  0  0  0  0  0  0  0
    7.0525   12.5480   41.7972 H   0  0  0  0  0  0  0  0  0  0  0  0
    8.2640   12.5492   44.6366 H   0  0  0  0  0  0  0  0  0  0  0  0
    8.2873   13.8713   43.4155 H   0  0  0  0  0  0  0  0  0  0  0  0
    4.0259    8.6610   47.3639 H   0  0  0  0  0  0  0  0  0  0  0  0
    1.4284    8.1474   46.1265 H   0  0  0  0  0  0  0  0  0  0  0  0
    0.9381    5.9003   45.2749 H   0  0  0  0  0  0  0  0  0  0  0  0
    3.7184    7.9877   43.4348 H   0  0  0  0  0  0  0  0  0  0  0  0
    1.6827   15.1892   46.5224 H   0  0  0  0  0  0  0  0  0  0  0  0
    1.7134   15.9726   44.9256 H   0  0  0  0  0  0  0  0  0  0  0  0
    4.4367   15.0406   47.6688 H   0  0  0  0  0  0  0  0  0  0  0  0
    5.4162   14.4822   46.2978 H   0  0  0  0  0  0  0  0  0  0  0  0
    4.4737   12.4870   47.0416 H   0  0  0  0  0  0  0  0  0  0  0  0
    2.9287   13.2389   47.5348 H   0  0  0  0  0  0  0  0  0  0  0  0
  2  1  1  0
  3  4  2  0
  4  5  1  0
  5  6  2  0
  3  7  1  0
  7  8  1  0
  6  9  1  0
 12 13  1  0
  9 15  1  0
 14 15  2  0
  2 16  1  0
 18 19  2  0
 19 20  1  0
  8 23  1  0
  2 23  1  0
 23 24  1  0
  3 24  1  0
  6 25  1  0
  7 25  2  0
  8 26  2  0
 10 27  1  0
  9 27  2  0
 10 28  1  0
 13 29  1  0
 28 29  1  0
 11 30  1  0
 29 30  1  0
 11 31  1  0
 12 31  1  0
 10 32  2  0
 14 32  1  0
 15 33  1  0
 16 34  2  0
 16 35  1  0
 35 36  1  0
 36 17  1  0
 17 37  1  0
 36 38  1  0
 38 39  2  0
 18 39  1  0
 20 40  2  0
 38 40  1  0
 21 41  1  0
 20 41  1  0
 21 42  1  0
 22 43  1  0
 42 43  1  0
 43 44  1  0
 44 45  1  0
 41 45  1  0
  1 46  1  1
  1 47  1  0
  1 48  1  0
  2 49  1  1
  4 50  1  0
  5 51  1  0
 11 52  1  1
 11 53  1  0
 12 54  1  1
 12 55  1  0
 13 56  1  1
 13 57  1  0
 14 58  1  0
 17 59  1  6
 17 60  1  0
 18 61  1  0
 19 62  1  0
 21 63  1  6
 21 64  1  0
 22 65  1  6
 22 66  1  0
 22 67  1  0
 24 68  1  1
 24 69  1  0
 25 70  1  0
 28 71  1  0
 29 72  1  6
 30 73  1  1
 30 74  1  0
 35 75  1  0
 36 76  1  1
 37 77  1  0
 39 78  1  0
 42 79  1  1
 42 80  1  0
 44 81  1  1
 44 82  1  0
 45 83  1  1
 45 84  1  0
M  END
