
     RDKit          3D

 28 28  0  0  0  0  0  0  0  0999 V2000
   10.4176   -0.4483   -5.3864 C   0  0  0  0  0  0  0  0  0  0  0  0
   10.1229   -1.6123   -4.6169 O   0  0  0  0  0  0  0  0  0  0  0  0
   11.5682   -0.7017   -6.3852 C   0  0  1  0  0  0  0  0  0  0  0  0
   12.8759   -0.7625   -5.7953 O   0  0  0  0  0  0  0  0  0  0  0  0
   11.3214   -1.9645   -7.2254 C   0  0  1  0  0  0  0  0  0  0  0  0
   11.9058   -3.0744   -6.5324 O   0  0  0  0  0  0  0  0  0  0  0  0
    9.8323   -2.2844   -7.4404 C   0  0  0  0  0  0  0  0  0  0  0  0
    9.6694   -2.8964   -8.7248 O   0  0  0  0  0  0  0  0  0  0  0  0
    8.9176   -1.0507   -7.3968 C   0  0  0  0  0  0  0  0  0  0  0  0
    9.0865   -0.3137   -8.6189 O   0  0  0  0  0  0  0  0  0  0  0  0
    9.1831   -0.0745   -6.2246 C   0  0  1  0  0  0  0  0  0  0  0  0
    8.0163    0.0409   -5.4068 O   0  0  0  0  0  0  0  0  0  0  0  0
   10.0245   -1.4489   -3.0332 P   0  0  0  0  0  5  0  0  0  0  0  0
    8.9181   -2.2308   -2.4116 O   0  0  0  0  0  0  0  0  0  0  0  0
   10.0036    0.1258   -2.7974 O   0  0  0  0  0  0  0  0  0  0  0  0
   11.4596   -1.8452   -2.4717 O   0  0  0  0  0  0  0  0  0  0  0  0
   13.2951   -3.6506   -7.0904 P   0  0  0  0  0  5  0  0  0  0  0  0
   13.5462   -3.3121   -8.5272 O   0  0  0  0  0  0  0  0  0  0  0  0
   14.3461   -3.1460   -6.0073 O   0  0  0  0  0  0  0  0  0  0  0  0
   13.1153   -5.2003   -6.7634 O   0  0  0  0  0  0  0  0  0  0  0  0
   10.6272   -2.5310   -9.9513 P   0  0  0  0  0  5  0  0  0  0  0  0
   11.3742   -1.1972   -9.4911 O   0  0  0  0  0  0  0  0  0  0  0  0
    9.6534   -2.0075  -11.1000 O   0  0  0  0  0  0  0  0  0  0  0  0
   11.5603   -3.6108  -10.3751 O   0  0  0  0  0  0  0  0  0  0  0  0
    7.7228    0.1221   -9.3465 P   0  0  0  0  0  5  0  0  0  0  0  0
    6.7752   -1.1362   -9.1152 O   0  0  0  0  0  0  0  0  0  0  0  0
    7.9331    0.5485  -10.7608 O   0  0  0  0  0  0  0  0  0  0  0  0
    7.1292    1.2289   -8.3706 O   0  0  0  0  0  0  0  0  0  0  0  0
  1  2  1  0
  1  3  1  0
  3  4  1  1
  3  5  1  0
  5  6  1  1
  5  7  1  0
  7  8  1  0
  7  9  1  0
  9 10  1  0
  1 11  1  0
  9 11  1  0
 11 12  1  1
  2 13  1  0
 13 14  2  0
 13 15  1  0
 13 16  1  0
  6 17  1  0
 17 18  2  0
 17 19  1  0
 17 20  1  0
  8 21  1  0
 21 22  1  0
 21 23  1  0
 21 24  2  0
 10 25  1  0
 25 26  1  0
 25 27  2  0
 25 28  1  0
M  END
