7Q2B_M6H_A_401
     RDKit          3D

 12 13  0  0  0  0  0  0  0  0999 V2000
  -13.2271  -18.2387    5.9847 C   0  0  0  0  0  0  0  0  0  0  0  0
  -13.0697  -18.8314    7.2207 C   0  0  0  0  0  0  0  0  0  0  0  0
  -12.3464  -17.2212    5.6170 C   0  0  0  0  0  0  0  0  0  0  0  0
  -12.0647  -18.4317    8.0813 C   0  0  0  0  0  0  0  0  0  0  0  0
  -11.3549  -16.8456    6.4971 C   0  0  0  0  0  0  0  0  0  0  0  0
   -6.9078  -18.0563    7.5653 C   0  0  0  0  0  0  0  0  0  0  0  0
   -6.8061  -17.4885    8.9869 C   0  0  0  0  0  0  0  0  0  0  0  0
  -10.1326  -17.0472    8.6952 C   0  0  0  0  0  0  0  0  0  0  0  0
   -8.8064  -16.9274    7.9790 C   0  0  0  0  0  0  0  0  0  0  0  0
  -11.1725  -17.4131    7.7294 C   0  0  0  0  0  0  0  0  0  0  0  0
   -8.3716  -18.2356    7.5264 N   0  0  0  0  0  0  0  0  0  0  0  0
   -7.8275  -16.4597    8.9192 N   0  0  0  0  0  0  0  0  0  0  0  0
  1  2  2  0
  1  3  1  0
  2  4  1  0
  3  5  2  0
  6  7  1  0
  8  9  1  0
  4 10  2  0
  8 10  1  0
  5 10  1  0
  6 11  1  0
  9 11  1  0
  9 12  1  0
  7 12  1  0
M  END
$$$$
