7V8Z_5YH_A_601
     RDKit          3D

 42 45  0  0  0  0  0  0  0  0999 V2000
   -6.9168   29.6920  -17.2143 C   0  0  2  0  0  0  0  0  0  0  0  0
   -6.3375   27.4857  -19.3387 C   0  0  0  0  0  0  0  0  0  0  0  0
   -7.1301   25.2957  -20.0939 C   0  0  0  0  0  0  0  0  0  0  0  0
   -8.1230   25.2907  -19.0994 C   0  0  0  0  0  0  0  0  0  0  0  0
   -8.6385   27.8981  -16.6961 C   0  0  0  0  0  0  0  0  0  0  0  0
   -9.2819   28.4566  -15.5847 C   0  0  0  0  0  0  0  0  0  0  0  0
  -10.3320   27.7329  -14.9912 C   0  0  0  0  0  0  0  0  0  0  0  0
  -10.0555   25.9241  -16.6120 C   0  0  0  0  0  0  0  0  0  0  0  0
   -6.6789   30.0072  -15.7199 C   0  0  2  0  0  0  0  0  0  0  0  0
   -6.5169   28.7486  -14.8331 C   0  0  1  0  0  0  0  0  0  0  0  0
   -7.2045   26.3360  -15.4980 C   0  0  1  0  0  0  0  0  0  0  0  0
   -8.5137   25.5327  -15.2986 C   0  0  2  0  0  0  0  0  0  0  0  0
   -8.8529   27.7336  -14.6690 C   0  0  0  0  0  0  0  0  0  0  0  0
   -7.3478   27.4757  -18.3706 C   0  0  0  0  0  0  0  0  0  0  0  0
   -6.2396   26.3849  -20.2090 C   0  0  0  0  0  0  0  0  0  0  0  0
   -8.1995   26.3947  -18.2525 C   0  0  0  0  0  0  0  0  0  0  0  0
   -9.0208   26.6623  -17.1830 C   0  0  0  0  0  0  0  0  0  0  0  0
  -10.7179   26.4750  -15.5020 C   0  0  0  0  0  0  0  0  0  0  0  0
   -7.0184   24.2416  -20.9391 F   0  0  0  0  0  0  0  0  0  0  0  0
  -11.7321   25.7924  -14.9163 F   0  0  0  0  0  0  0  0  0  0  0  0
   -7.5152   27.7157  -15.1298 N   0  0  0  0  0  0  0  0  0  0  0  0
   -9.4831   26.4798  -14.7702 N   0  0  0  0  0  0  0  0  0  0  0  0
   -7.6175   28.4181  -17.4289 N   0  0  0  0  0  0  0  0  0  0  0  0
   -7.6921   30.8431  -15.2228 O   0  0  0  0  0  0  0  0  0  0  0  0
   -9.4133   28.7495  -14.1786 O   0  0  0  0  0  0  0  0  0  0  0  0
   -5.9435   29.6923  -17.7470 H   0  0  0  0  0  0  0  0  0  0  0  0
   -7.5058   30.5162  -17.6711 H   0  0  0  0  0  0  0  0  0  0  0  0
   -5.6332   28.3009  -19.4180 H   0  0  0  0  0  0  0  0  0  0  0  0
   -8.7996   24.4527  -18.9929 H   0  0  0  0  0  0  0  0  0  0  0  0
   -8.9965   29.4169  -15.1800 H   0  0  0  0  0  0  0  0  0  0  0  0
  -10.8477   28.1456  -14.1339 H   0  0  0  0  0  0  0  0  0  0  0  0
  -10.3427   24.9589  -17.0085 H   0  0  0  0  0  0  0  0  0  0  0  0
   -5.7057   30.5521  -15.6698 H   0  0  0  0  0  0  0  0  0  0  0  0
   -5.4946   28.3301  -14.9309 H   0  0  0  0  0  0  0  0  0  0  0  0
   -6.6240   29.0427  -13.7658 H   0  0  0  0  0  0  0  0  0  0  0  0
   -6.4015   25.9365  -14.8414 H   0  0  0  0  0  0  0  0  0  0  0  0
   -6.8880   26.2854  -16.5564 H   0  0  0  0  0  0  0  0  0  0  0  0
   -8.3618   24.7050  -14.5732 H   0  0  0  0  0  0  0  0  0  0  0  0
   -8.8777   25.1250  -16.2660 H   0  0  0  0  0  0  0  0  0  0  0  0
   -5.4690   26.3710  -20.9689 H   0  0  0  0  0  0  0  0  0  0  0  0
  -10.4659   26.2623  -14.4931 H   0  0  0  0  0  0  0  0  0  0  0  0
   -7.3897   31.7794  -15.3575 H   0  0  0  0  0  0  0  0  0  0  0  0
  3  4  1  0
  5  6  2  0
  6  7  1  0
  1  9  1  0
  9 10  1  0
 11 12  1  0
  2 14  2  0
  2 15  1  0
  3 15  2  0
 14 16  1  0
  4 16  2  0
  5 17  1  0
 16 17  1  0
  8 17  2  0
  7 18  2  0
  8 18  1  0
  3 19  1  0
 18 20  1  0
 13 21  1  0
 11 21  1  0
 10 21  1  0
 13 22  1  0
 12 22  1  0
  1 23  1  0
 14 23  1  0
  5 23  1  0
  9 24  1  0
 13 25  2  0
  1 26  1  6
  1 27  1  0
  2 28  1  0
  4 29  1  0
  6 30  1  0
  7 31  1  0
  8 32  1  0
  9 33  1  6
 10 34  1  1
 10 35  1  0
 11 36  1  1
 11 37  1  0
 12 38  1  1
 12 39  1  0
 15 40  1  0
 22 41  1  0
 24 42  1  0
M  END
