1JD0_AZM_B_2401
     RDKit          3D

 13 13  0  0  0  0  0  0  0  0999 V2000
  -13.5048   -6.9138   21.1087 C   0  0  0  0  0  0  0  0  0  0  0  0
  -15.2854   -5.0457   20.5100 C   0  0  0  0  0  0  0  0  0  0  0  0
  -17.3428   -3.8262   20.1324 C   0  0  0  0  0  0  0  0  0  0  0  0
  -18.1165   -2.5814   19.8460 C   0  0  0  0  0  0  0  0  0  0  0  0
  -10.8957   -7.6693   20.1627 N   0  0  0  0  0  0  0  0  0  0  0  0
  -15.5465   -6.2146   20.6898 N   0  0  0  0  0  0  0  0  0  0  0  0
  -14.6545   -7.0983   20.9800 N   0  0  0  0  0  0  0  0  0  0  0  0
  -15.9449   -3.7988   20.1854 N   0  0  0  0  0  0  0  0  0  0  0  0
  -12.3463   -9.1499   21.7463 O   0  0  0  0  0  0  0  0  0  0  0  0
  -11.3571   -7.1360   22.7127 O   0  0  0  0  0  0  0  0  0  0  0  0
  -17.9177   -4.9409   20.3358 O   0  0  0  0  0  0  0  0  0  0  0  0
  -11.9804   -7.7185   21.4762 S   0  0  2  0  0  0  0  0  0  0  0  0
  -13.4679   -5.0326   20.7651 S   0  0  0  0  0  0  0  0  0  0  0  0
  3  4  1  0
  2  6  2  0
  1  7  2  0
  6  7  1  0
  2  8  1  0
  3  8  1  0
  3 11  2  0
  1 12  1  0
 12  5  1  6
  9 12  2  0
 10 12  2  0
  1 13  1  0
  2 13  1  0
M  END
$$$$
