1JD0_AZM_B_2401
     RDKit          3D

 13 13  0  0  0  0  0  0  0  0999 V2000
  -13.0789   -6.3657   21.1973 C   0  0  0  0  0  0  0  0  0  0  0  0
  -15.2757   -5.1035   20.4230 C   0  0  0  0  0  0  0  0  0  0  0  0
  -17.0552   -3.4757   20.2084 C   0  0  0  0  0  0  0  0  0  0  0  0
  -18.4186   -3.0458   19.7766 C   0  0  0  0  0  0  0  0  0  0  0  0
  -10.7433   -7.8383   20.3913 N   0  0  0  0  0  0  0  0  0  0  0  0
  -14.2585   -4.5565   20.7877 N   0  0  0  0  0  0  0  0  0  0  0  0
  -13.2064   -5.2019   21.1583 N   0  0  0  0  0  0  0  0  0  0  0  0
  -16.6045   -4.7753   19.9523 N   0  0  0  0  0  0  0  0  0  0  0  0
  -12.7568   -8.9009   21.6644 O   0  0  0  0  0  0  0  0  0  0  0  0
  -11.3093   -7.4010   22.9385 O   0  0  0  0  0  0  0  0  0  0  0  0
  -16.2650   -2.6878   20.8160 O   0  0  0  0  0  0  0  0  0  0  0  0
  -11.9345   -7.6459   21.5948 S   0  0  2  0  0  0  0  0  0  0  0  0
  -14.8155   -6.8735   20.5770 S   0  0  0  0  0  0  0  0  0  0  0  0
  3  4  1  0
  2  6  2  0
  1  7  2  0
  6  7  1  0
  2  8  1  0
  3  8  1  0
  3 11  2  0
  1 12  1  0
 12  5  1  6
  9 12  2  0
 10 12  2  0
  1 13  1  0
  2 13  1  0
M  END
$$$$
