1JD0_AZM_B_2401
     RDKit          3D

 13 13  0  0  0  0  0  0  0  0999 V2000
  -13.5639   -7.1374   21.1156 C   0  0  0  0  0  0  0  0  0  0  0  0
  -15.3920   -5.3201   20.5041 C   0  0  0  0  0  0  0  0  0  0  0  0
  -17.4749   -4.1236   20.1998 C   0  0  0  0  0  0  0  0  0  0  0  0
  -18.2726   -2.9147   19.8359 C   0  0  0  0  0  0  0  0  0  0  0  0
  -10.9563   -7.7704   20.0796 N   0  0  0  0  0  0  0  0  0  0  0  0
  -15.6361   -6.4591   20.8356 N   0  0  0  0  0  0  0  0  0  0  0  0
  -14.7211   -7.3187   21.1268 N   0  0  0  0  0  0  0  0  0  0  0  0
  -16.0784   -4.1065   20.1155 N   0  0  0  0  0  0  0  0  0  0  0  0
  -12.3344   -9.3720   21.6093 O   0  0  0  0  0  0  0  0  0  0  0  0
  -11.3779   -7.3863   22.6631 O   0  0  0  0  0  0  0  0  0  0  0  0
  -18.0276   -5.1976   20.5940 O   0  0  0  0  0  0  0  0  0  0  0  0
  -12.0116   -7.9188   21.4096 S   0  0  2  0  0  0  0  0  0  0  0  0
  -13.5579   -5.3049   20.5677 S   0  0  0  0  0  0  0  0  0  0  0  0
  3  4  1  0
  2  6  2  0
  1  7  2  0
  6  7  1  0
  2  8  1  0
  3  8  1  0
  3 11  2  0
  1 12  1  0
 12  5  1  6
  9 12  2  0
 10 12  2  0
  1 13  1  0
  2 13  1  0
M  END
$$$$
