1JD0_AZM_B_2401
     RDKit          3D

 13 13  0  0  0  0  0  0  0  0999 V2000
  -13.0728   -6.4783   21.2565 C   0  0  0  0  0  0  0  0  0  0  0  0
  -15.3622   -5.2721   20.6888 C   0  0  0  0  0  0  0  0  0  0  0  0
  -17.2323   -3.7360   20.7621 C   0  0  0  0  0  0  0  0  0  0  0  0
  -18.6568   -3.3641   20.5118 C   0  0  0  0  0  0  0  0  0  0  0  0
  -10.7137   -7.8192   20.3024 N   0  0  0  0  0  0  0  0  0  0  0  0
  -14.3260   -4.6994   20.9444 N   0  0  0  0  0  0  0  0  0  0  0  0
  -13.2288   -5.3180   21.2166 N   0  0  0  0  0  0  0  0  0  0  0  0
  -16.7377   -4.9776   20.3481 N   0  0  0  0  0  0  0  0  0  0  0  0
  -12.6384   -9.0176   21.5921 O   0  0  0  0  0  0  0  0  0  0  0  0
  -11.2037   -7.5217   22.8853 O   0  0  0  0  0  0  0  0  0  0  0  0
  -16.4279   -2.9491   21.3522 O   0  0  0  0  0  0  0  0  0  0  0  0
  -11.8672   -7.7293   21.5537 S   0  0  2  0  0  0  0  0  0  0  0  0
  -14.8507   -7.0300   20.8173 S   0  0  0  0  0  0  0  0  0  0  0  0
  3  4  1  0
  2  6  2  0
  1  7  2  0
  6  7  1  0
  2  8  1  0
  3  8  1  0
  3 11  2  0
  1 12  1  0
 12  5  1  6
  9 12  2  0
 10 12  2  0
  1 13  1  0
  2 13  1  0
M  END
$$$$
