1JD0_AZM_B_2401
     RDKit          3D

 13 13  0  0  0  0  0  0  0  0999 V2000
  -13.0812   -6.4437   21.2137 C   0  0  0  0  0  0  0  0  0  0  0  0
  -15.3944   -5.2654   20.6853 C   0  0  0  0  0  0  0  0  0  0  0  0
  -17.2379   -3.6962   20.6466 C   0  0  0  0  0  0  0  0  0  0  0  0
  -18.6645   -3.3278   20.4030 C   0  0  0  0  0  0  0  0  0  0  0  0
  -10.7167   -7.7458   20.2204 N   0  0  0  0  0  0  0  0  0  0  0  0
  -14.3625   -4.6802   20.9290 N   0  0  0  0  0  0  0  0  0  0  0  0
  -13.2532   -5.2854   21.1821 N   0  0  0  0  0  0  0  0  0  0  0  0
  -16.7786   -4.9876   20.3661 N   0  0  0  0  0  0  0  0  0  0  0  0
  -12.6079   -8.9788   21.5268 O   0  0  0  0  0  0  0  0  0  0  0  0
  -11.1771   -7.4718   22.8113 O   0  0  0  0  0  0  0  0  0  0  0  0
  -16.4001   -2.8615   21.1112 O   0  0  0  0  0  0  0  0  0  0  0  0
  -11.8549   -7.6799   21.4870 S   0  0  2  0  0  0  0  0  0  0  0  0
  -14.8578   -7.0169   20.7973 S   0  0  0  0  0  0  0  0  0  0  0  0
  3  4  1  0
  2  6  2  0
  1  7  2  0
  6  7  1  0
  2  8  1  0
  3  8  1  0
  3 11  2  0
  1 12  1  0
 12  5  1  6
  9 12  2  0
 10 12  2  0
  1 13  1  0
  2 13  1  0
M  END
$$$$
