1JD0_AZM_B_2401
     RDKit          3D

 13 13  0  0  0  0  0  0  0  0999 V2000
   17.4812    5.5223   25.4203 C   0  0  0  0  0  0  0  0  0  0  0  0
   18.4711    7.8824   26.1048 C   0  0  0  0  0  0  0  0  0  0  0  0
   19.0271   10.2384   26.0520 C   0  0  0  0  0  0  0  0  0  0  0  0
   19.7827   11.4342   26.5308 C   0  0  0  0  0  0  0  0  0  0  0  0
   16.5509    2.9675   26.3585 N   0  0  0  0  0  0  0  0  0  0  0  0
   17.3334    7.6929   25.7353 N   0  0  0  0  0  0  0  0  0  0  0  0
   16.8839    6.5300   25.4094 N   0  0  0  0  0  0  0  0  0  0  0  0
   19.3312    8.9625   26.5391 N   0  0  0  0  0  0  0  0  0  0  0  0
   18.7526    3.2963   24.9991 O   0  0  0  0  0  0  0  0  0  0  0  0
   16.6509    3.5577   23.7815 O   0  0  0  0  0  0  0  0  0  0  0  0
   18.0928   10.3344   25.1962 O   0  0  0  0  0  0  0  0  0  0  0  0
   17.3394    3.7958   25.0951 S   0  0  2  0  0  0  0  0  0  0  0  0
   19.1677    6.1860   26.0314 S   0  0  0  0  0  0  0  0  0  0  0  0
  3  4  1  0
  2  6  2  0
  1  7  2  0
  6  7  1  0
  2  8  1  0
  3  8  1  0
  3 11  2  0
  1 12  1  0
 12  5  1  1
  9 12  2  0
 10 12  2  0
  1 13  1  0
  2 13  1  0
M  END
$$$$
