
     RDKit          3D

  8  7  0  0  0  0  0  0  0  0999 V2000
   23.9219  -14.3909  -26.2815 N   0  0  0  0  0  0  0  0  0  0  0  0
   23.1888  -13.1251  -26.4368 C   0  0  2  0  0  0  0  0  0  0  0  0
   21.8157  -13.2207  -25.7330 C   0  0  0  0  0  0  0  0  0  0  0  0
   23.0285  -12.7960  -27.9351 C   0  0  0  0  0  0  0  0  0  0  0  0
   23.8540  -11.5916  -28.4391 C   0  0  0  0  0  0  0  0  0  0  0  0
   23.2984  -11.1136  -29.7841 C   0  0  0  0  0  0  0  0  0  0  0  0
   23.8613  -10.4297  -27.4448 C   0  0  0  0  0  0  0  0  0  0  0  0
   20.9173  -14.0684  -26.4487 O   0  0  0  0  0  0  0  0  0  0  0  0
  2  1  1  6
  2  3  1  0
  2  4  1  0
  4  5  1  0
  5  6  1  0
  5  7  1  0
  3  8  1  0
M  END
