7LMO_NYO_B_501
     RDKit          3D

 67 71  0  0  0  0  0  0  0  0999 V2000
    0.3322  -21.4427   35.2916 C   0  0  0  0  0  0  0  0  0  0  0  0
    0.4971  -20.3935   34.3979 C   0  0  0  0  0  0  0  0  0  0  0  0
   -0.5237  -19.4931   34.1642 C   0  0  0  0  0  0  0  0  0  0  0  0
   -5.9074  -17.3711   37.8091 N   0  0  0  0  0  0  0  0  0  0  0  0
   -8.3405  -18.1524   46.4962 N   0  0  0  0  0  4  0  0  0  0  0  0
    2.4156  -22.5612   34.5275 C   0  0  0  0  0  0  0  0  0  0  0  0
   -5.1244  -20.2613   36.8988 O   0  0  0  0  0  0  0  0  0  0  0  0
   -4.1162  -19.9580   36.2979 C   0  0  0  0  0  0  0  0  0  0  0  0
   -3.0387  -20.8107   36.4365 O   0  0  0  0  0  3  0  0  0  0  0  0
   -1.8854  -20.6389   35.7267 C   0  0  0  0  0  0  0  0  0  0  0  0
   -0.8888  -21.5549   35.9576 C   0  0  0  0  0  0  0  0  0  0  0  0
    1.3337  -22.4072   35.4670 N   0  0  0  0  0  0  0  0  0  0  0  0
    3.3277  -21.4007   34.5306 C   0  0  0  0  0  0  0  0  0  0  0  0
    1.2496  -23.4087   36.5483 C   0  0  0  0  0  0  0  0  0  0  0  0
    0.0952  -24.2424   36.2436 C   0  0  0  0  0  0  0  0  0  0  0  0
   -3.9765  -18.8124   35.4030 C   0  0  0  0  0  0  0  0  0  0  0  0
   -2.8382  -18.6321   34.6697 C   0  0  0  0  0  0  0  0  0  0  0  0
   -2.6661  -17.5046   33.6988 C   0  0  0  0  0  0  0  0  0  0  0  0
   -1.7388  -19.5870   34.8323 C   0  0  0  0  0  0  0  0  0  0  0  0
   -5.0837  -17.7830   35.5006 C   0  0  0  0  0  0  0  0  0  0  0  0
   -5.0356  -16.8925   36.7362 C   0  0  0  0  0  0  0  0  0  0  0  0
   -6.7920  -18.4570   37.6796 C   0  0  0  0  0  0  0  0  0  0  0  0
   -6.9720  -19.1324   36.6757 O   0  0  0  0  0  0  0  0  0  0  0  0
   -7.4459  -18.5718   38.8325 N   0  0  0  0  0  0  0  0  0  0  0  0
   -7.0517  -17.5821   39.8245 C   0  0  1  0  0  0  0  0  0  0  0  0
   -6.0485  -16.7681   39.0434 C   0  0  0  0  0  0  0  0  0  0  0  0
   -5.4617  -15.7789   39.4493 O   0  0  0  0  0  0  0  0  0  0  0  0
   -8.2343  -16.7352   40.3361 C   0  0  0  0  0  0  0  0  0  0  0  0
   -8.7579  -17.4927   41.5401 C   0  0  0  0  0  0  0  0  0  0  0  0
   -7.6227  -18.3185   41.9520 N   0  0  0  0  0  0  0  0  0  0  0  0
   -6.4578  -18.2055   41.0883 C   0  0  0  0  0  0  0  0  0  0  0  0
   -7.5954  -19.1815   42.9676 C   0  0  0  0  0  0  0  0  0  0  0  0
   -7.4264  -20.3931   42.7682 O   0  0  0  0  0  0  0  0  0  0  0  0
   -7.8420  -18.6675   44.3497 C   0  0  0  0  0  0  0  0  0  0  0  0
   -7.4943  -17.3622   44.6085 N   0  0  0  0  0  0  0  0  0  0  0  0
   -7.8125  -17.1012   45.8957 C   0  0  0  0  0  0  0  0  0  0  0  0
   -8.3522  -19.1307   45.5352 C   0  0  0  0  0  0  0  0  0  0  0  0
    1.3951  -20.2847   33.9010 H   0  0  0  0  0  0  0  0  0  0  0  0
   -0.3812  -18.7345   33.4792 H   0  0  0  0  0  0  0  0  0  0  0  0
   -8.6556  -18.2189   47.4265 H   0  0  0  0  0  0  0  0  0  0  0  0
    2.9727  -23.4378   34.7845 H   0  0  0  0  0  0  0  0  0  0  0  0
    1.9910  -22.6421   33.5487 H   0  0  0  0  0  0  0  0  0  0  0  0
   -1.0430  -22.3272   36.6245 H   0  0  0  0  0  0  0  0  0  0  0  0
    3.7680  -21.2956   35.5002 H   0  0  0  0  0  0  0  0  0  0  0  0
    4.0982  -21.5507   33.8034 H   0  0  0  0  0  0  0  0  0  0  0  0
    2.7783  -20.5145   34.2904 H   0  0  0  0  0  0  0  0  0  0  0  0
    2.1393  -24.0025   36.5735 H   0  0  0  0  0  0  0  0  0  0  0  0
    1.1498  -22.9405   37.5053 H   0  0  0  0  0  0  0  0  0  0  0  0
    0.2257  -24.6949   35.2828 H   0  0  0  0  0  0  0  0  0  0  0  0
    0.0003  -25.0058   36.9874 H   0  0  0  0  0  0  0  0  0  0  0  0
   -0.7885  -23.6393   36.2367 H   0  0  0  0  0  0  0  0  0  0  0  0
   -3.5488  -16.8997   33.6945 H   0  0  0  0  0  0  0  0  0  0  0  0
   -1.8266  -16.9083   33.9897 H   0  0  0  0  0  0  0  0  0  0  0  0
   -2.5001  -17.9002   32.7186 H   0  0  0  0  0  0  0  0  0  0  0  0
   -5.0276  -17.1539   34.6369 H   0  0  0  0  0  0  0  0  0  0  0  0
   -5.9974  -18.3357   35.5686 H   0  0  0  0  0  0  0  0  0  0  0  0
   -4.0295  -16.8642   37.0992 H   0  0  0  0  0  0  0  0  0  0  0  0
   -5.3791  -15.9207   36.4487 H   0  0  0  0  0  0  0  0  0  0  0  0
   -8.1302  -19.2598   38.9987 H   0  0  0  0  0  0  0  0  0  0  0  0
   -7.9035  -15.7579   40.6198 H   0  0  0  0  0  0  0  0  0  0  0  0
   -8.9859  -16.5956   39.5875 H   0  0  0  0  0  0  0  0  0  0  0  0
   -9.0422  -16.8185   42.3208 H   0  0  0  0  0  0  0  0  0  0  0  0
   -9.6313  -18.0699   41.3188 H   0  0  0  0  0  0  0  0  0  0  0  0
   -6.0319  -19.1655   40.8839 H   0  0  0  0  0  0  0  0  0  0  0  0
   -5.6604  -17.6337   41.5152 H   0  0  0  0  0  0  0  0  0  0  0  0
   -7.6610  -16.1894   46.3547 H   0  0  0  0  0  0  0  0  0  0  0  0
   -8.6998  -20.0909   45.6848 H   0  0  0  0  0  0  0  0  0  0  0  0
  1  2  4  0
  2  3  4  0
  7  8  2  0
  8  9  4  0
  9 10  4  0
  1 11  4  0
 10 11  4  0
  6 12  1  0
  1 12  1  0
  6 13  1  0
 12 14  1  0
 14 15  1  0
  8 16  4  0
 16 17  4  0
 17 18  1  0
  3 19  4  0
 17 19  4  0
 10 19  4  0
 16 20  1  0
 20 21  1  0
  4 21  1  0
  4 22  1  0
 22 23  2  0
 22 24  1  0
 24 25  1  0
  4 26  1  0
 25 26  1  1
 26 27  2  0
 25 28  1  0
 28 29  1  0
 29 30  1  0
 25 31  1  0
 30 31  1  0
 30 32  1  0
 32 33  2  0
 32 34  1  0
 34 35  4  0
 35 36  4  0
  5 36  4  0
 34 37  4  0
  5 37  4  0
  2 38  1  0
  3 39  1  0
  5 40  1  0
  6 41  1  0
  6 42  1  0
 11 43  1  0
 13 44  1  0
 13 45  1  0
 13 46  1  0
 14 47  1  0
 14 48  1  0
 15 49  1  0
 15 50  1  0
 15 51  1  0
 18 52  1  0
 18 53  1  0
 18 54  1  0
 20 55  1  0
 20 56  1  0
 21 57  1  0
 21 58  1  0
 24 59  1  0
 28 60  1  0
 28 61  1  0
 29 62  1  0
 29 63  1  0
 31 64  1  0
 31 65  1  0
 36 66  1  0
 37 67  1  0
M  CHG  2   5   1   9   1
M  END
