7UJF_R3V_C_601
     RDKit          3D

 32 36  0  0  0  0  0  0  0  0999 V2000
   -3.9977  -24.1119  -69.6575 C   0  0  0  0  0  0  0  0  0  0  0  0
   -3.0334  -22.9762  -69.8983 C   0  0  1  0  0  0  0  0  0  0  0  0
   -3.7384  -21.6462  -70.0363 C   0  0  0  0  0  0  0  0  0  0  0  0
   -2.1825  -23.0176  -68.6412 C   0  0  0  0  0  0  0  0  0  0  0  0
   -2.0387  -24.5188  -68.4496 C   0  0  0  0  0  0  0  0  0  0  0  0
   -3.1969  -25.1207  -69.0281 N   0  0  0  0  0  0  0  0  0  0  0  0
   -3.9227  -25.9844  -68.1493 C   0  0  0  0  0  0  0  0  0  0  0  0
   -5.1067  -26.6687  -68.8058 C   0  0  0  0  0  0  0  0  0  0  0  0
   -6.1011  -25.7587  -69.1797 O   0  0  0  0  0  0  0  0  0  0  0  0
   -7.1457  -26.0986  -70.0510 C   0  0  0  0  0  0  0  0  0  0  0  0
   -7.3020  -27.3880  -70.5122 C   0  0  0  0  0  0  0  0  0  0  0  0
   -8.3516  -27.6681  -71.3713 C   0  0  0  0  0  0  0  0  0  0  0  0
   -8.0340  -25.1257  -70.4550 C   0  0  0  0  0  0  0  0  0  0  0  0
   -9.0672  -25.4364  -71.3102 C   0  0  0  0  0  0  0  0  0  0  0  0
   -9.2572  -26.7392  -71.8002 C   0  0  0  0  0  0  0  0  0  0  0  0
  -10.3777  -26.9774  -72.7137 C   0  0  2  0  0  0  0  0  0  0  0  0
  -10.6039  -25.9118  -73.7148 C   0  0  0  0  0  0  0  0  0  0  0  0
   -9.9546  -24.6980  -73.7118 C   0  0  0  0  0  0  0  0  0  0  0  0
  -10.2577  -23.8215  -74.7294 C   0  0  0  0  0  0  0  0  0  0  0  0
  -11.1807  -24.1332  -75.7294 C   0  0  0  0  0  0  0  0  0  0  0  0
  -11.4679  -23.2176  -76.7545 O   0  0  0  0  0  0  0  0  0  0  0  0
  -11.8402  -25.3630  -75.7341 C   0  0  0  0  0  0  0  0  0  0  0  0
  -11.5349  -26.2293  -74.7197 C   0  0  0  0  0  0  0  0  0  0  0  0
  -12.1645  -27.5738  -74.5545 C   0  0  0  0  0  0  0  0  0  0  0  0
  -12.6568  -27.7661  -73.1355 C   0  0  0  0  0  0  0  0  0  0  0  0
  -11.6887  -27.3397  -72.0717 C   0  0  2  0  0  0  0  0  0  0  0  0
  -12.2750  -26.3186  -71.1969 C   0  0  0  0  0  0  0  0  0  0  0  0
  -12.6797  -25.0656  -71.5742 C   0  0  0  0  0  0  0  0  0  0  0  0
  -13.2366  -24.1510  -70.6825 C   0  0  0  0  0  0  0  0  0  0  0  0
  -13.4098  -24.4696  -69.3541 C   0  0  0  0  0  0  0  0  0  0  0  0
  -13.0084  -25.7266  -68.9555 C   0  0  0  0  0  0  0  0  0  0  0  0
  -12.4585  -26.6272  -69.8406 C   0  0  0  0  0  0  0  0  0  0  0  0
  1  2  1  0
  2  3  1  1
  2  4  1  0
  4  5  1  0
  1  6  1  0
  5  6  1  0
  6  7  1  0
  7  8  1  0
  8  9  1  0
  9 10  1  0
 10 11  2  0
 11 12  1  0
 10 13  1  0
 13 14  2  0
 14 15  1  0
 12 15  2  0
 16 15  1  1
 16 17  1  0
 17 18  2  0
 18 19  1  0
 19 20  2  0
 20 21  1  0
 20 22  1  0
 17 23  1  0
 22 23  2  0
 23 24  1  0
 24 25  1  0
 16 26  1  0
 25 26  1  0
 26 27  1  6
 27 28  2  0
 28 29  1  0
 29 30  2  0
 30 31  1  0
 31 32  2  0
 27 32  1  0
M  END
$$$$
