8C5M_MTA_A_7216
     RDKit          3D

 20 22  0  0  0  0  0  0  0  0999 V2000
   82.6764  -21.4249    0.5242 C   0  0  0  0  0  0  0  0  0  0  0  0
   84.2700  -22.3290    0.5824 S   0  0  0  0  0  0  0  0  0  0  0  0
   85.4825  -21.0130    0.2422 C   0  0  0  0  0  0  0  0  0  0  0  0
   85.7828  -20.7703   -1.2488 C   0  0  1  0  0  0  0  0  0  0  0  0
   86.7178  -19.7105   -1.4851 O   0  0  0  0  0  0  0  0  0  0  0  0
   87.7958  -21.4849   -2.4443 C   0  0  2  0  0  0  0  0  0  0  0  0
   88.2086  -22.1330   -3.6168 O   0  0  0  0  0  0  0  0  0  0  0  0
   86.4740  -22.0091   -1.8407 C   0  0  2  0  0  0  0  0  0  0  0  0
   85.6919  -22.5988   -2.8507 O   0  0  0  0  0  0  0  0  0  0  0  0
   87.4947  -19.9928   -2.6137 C   0  0  2  0  0  0  0  0  0  0  0  0
   88.7121  -19.2188   -2.6106 N   0  0  0  0  0  0  0  0  0  0  0  0
   89.6418  -19.1639   -1.6202 C   0  0  0  0  0  0  0  0  0  0  0  0
   90.6516  -18.3924   -1.9104 N   0  0  0  0  0  0  0  0  0  0  0  0
   90.3782  -17.9089   -3.1676 C   0  0  0  0  0  0  0  0  0  0  0  0
   91.0756  -17.0402   -4.0395 C   0  0  0  0  0  0  0  0  0  0  0  0
   92.2438  -16.4776   -3.7298 N   0  0  0  0  0  0  0  0  0  0  0  0
   90.5321  -16.7733   -5.2301 N   0  0  0  0  0  0  0  0  0  0  0  0
   89.3739  -17.3611   -5.5219 C   0  0  0  0  0  0  0  0  0  0  0  0
   88.6270  -18.1755   -4.7947 N   0  0  0  0  0  0  0  0  0  0  0  0
   89.1811  -18.4253   -3.6222 C   0  0  0  0  0  0  0  0  0  0  0  0
  1  2  1  0
  2  3  1  0
  4  3  1  1
  4  5  1  0
  6  7  1  6
  4  8  1  0
  6  8  1  0
  8  9  1  6
  5 10  1  0
  6 10  1  0
 10 11  1  1
 11 12  1  0
 12 13  2  0
 13 14  1  0
 14 15  2  0
 15 16  1  0
 15 17  1  0
 17 18  2  0
 18 19  1  0
 11 20  1  0
 14 20  1  0
 19 20  2  0
M  END
