7E4L_MDN_A_301
     RDKit          3D

  9  8  0  0  0  0  0  0  0  0999 V2000
  -14.3400   -2.4550  -20.9058 O   0  0  0  0  0  0  0  0  0  0  0  0
  -13.6919   -0.8977  -21.1168 P   0  0  1  0  0  0  0  0  0  0  0  0
  -12.3268   -0.9445  -21.7425 O   0  0  0  0  0  0  0  0  0  0  0  0
  -14.7085    0.0063  -22.1329 O   0  0  0  0  0  0  0  0  0  0  0  0
  -13.6906   -0.0900  -19.5064 C   0  0  0  0  0  0  0  0  0  0  0  0
  -12.4536    1.2107  -19.3695 P   0  0  1  0  0  0  0  0  0  0  0  0
  -12.5024    2.0518  -20.6334 O   0  0  0  0  0  0  0  0  0  0  0  0
  -12.8242    2.2130  -18.0501 O   0  0  0  0  0  0  0  0  0  0  0  0
  -10.9457    0.5022  -19.2201 O   0  0  0  0  0  0  0  0  0  0  0  0
  2  1  1  1
  2  3  2  0
  2  4  1  0
  2  5  1  0
  5  6  1  0
  6  7  2  0
  6  8  1  1
  6  9  1  0
M  END
$$$$
