
     RDKit          3D

 38 41  0  0  0  0  0  0  0  0999 V2000
   14.2406   -9.3196   -5.2636 C   0  0  0  0  0  0  0  0  0  0  0  0
   13.1932  -12.2477   -7.1018 C   0  0  0  0  0  0  0  0  0  0  0  0
   11.7025  -14.0550   -6.3917 C   0  0  0  0  0  0  0  0  0  0  0  0
   13.8617  -15.1478   -6.3810 C   0  0  0  0  0  0  0  0  0  0  0  0
   13.7032   -8.3991   -3.0828 C   0  0  0  0  0  0  0  0  0  0  0  0
   12.6969   -5.5496   -0.0096 C   0  0  0  0  0  0  0  0  0  0  0  0
   10.3619   -6.4123   -0.5668 C   0  0  0  0  0  0  0  0  0  0  0  0
    8.2305   -7.5752   -0.7310 C   0  0  0  0  0  0  0  0  0  0  0  0
   12.7760   -3.6548    1.6796 C   0  0  0  0  0  0  0  0  0  0  0  0
   13.4124   -4.6272    0.7408 C   0  0  0  0  0  0  0  0  0  0  0  0
   14.7798   -4.6684    0.5786 C   0  0  0  0  0  0  0  0  0  0  0  0
   14.6531   -6.3933   -0.9149 C   0  0  0  0  0  0  0  0  0  0  0  0
   15.0276   -7.9852   -2.8863 C   0  0  0  0  0  0  0  0  0  0  0  0
   15.9376   -8.2296   -3.9186 C   0  0  0  0  0  0  0  0  0  0  0  0
   15.5550   -8.8954   -5.0928 C   0  0  0  0  0  0  0  0  0  0  0  0
   14.2939  -11.2513   -6.6950 C   0  0  0  0  0  0  0  0  0  0  0  0
   12.4499  -15.2646   -6.9386 C   0  0  0  0  0  0  0  0  0  0  0  0
   13.8183  -13.9344   -5.4662 C   0  0  0  0  0  0  0  0  0  0  0  0
   13.3149   -9.0574   -4.2549 C   0  0  0  0  0  0  0  0  0  0  0  0
    9.1269   -6.7757   -0.0188 C   0  0  0  0  0  0  0  0  0  0  0  0
    8.5415   -7.9793   -2.0273 C   0  0  0  0  0  0  0  0  0  0  0  0
    9.7346   -7.5614   -2.6375 C   0  0  0  0  0  0  0  0  0  0  0  0
    9.2702   -5.8250   -5.5840 C   0  0  0  0  0  0  0  0  0  0  0  0
    7.9495   -6.6170   -5.5514 C   0  0  0  0  0  0  0  0  0  0  0  0
    9.2084   -4.7077   -4.5352 C   0  0  0  0  0  0  0  0  0  0  0  0
    9.4459   -5.2298   -6.9855 C   0  0  0  0  0  0  0  0  0  0  0  0
   10.6423   -6.8050   -1.8874 C   0  0  0  0  0  0  0  0  0  0  0  0
   15.4156   -5.5324   -0.2303 N   0  0  0  0  0  0  0  0  0  0  0  0
   15.3482   -7.2971   -1.7125 N   0  0  0  0  0  0  0  0  0  0  0  0
   12.7295  -13.0840   -5.9773 N   0  0  0  0  0  0  0  0  0  0  0  0
   13.3183   -6.4217   -0.8224 N   0  0  0  0  0  0  0  0  0  0  0  0
   11.2844   -5.5793    0.1057 N   0  0  0  0  0  0  0  0  0  0  0  0
   10.0307   -7.9932   -3.9720 N   0  0  0  0  0  0  0  0  0  0  0  0
   13.7325   -9.9812   -6.3455 O   0  0  0  0  0  0  0  0  0  0  0  0
   11.7618   -6.2585   -4.6804 O   0  0  0  0  0  0  0  0  0  0  0  0
   10.7891   -7.8834   -6.3199 O   0  0  0  0  0  0  0  0  0  0  0  0
   10.6255   -7.0036   -5.1792 S   0  0  2  0  0  6  0  0  0  0  0  0
    7.4126   -8.9860   -2.8648 Cl  0  0  0  0  0  0  0  0  0  0  0  0
  6 10  4  0
  9 10  1  0
 10 11  4  0
  5 13  4  0
 13 14  4  0
  1 15  4  0
 14 15  4  0
  2 16  1  0
  4 17  1  0
  3 17  1  0
  4 18  1  0
  1 19  4  0
  5 19  4  0
  7 20  4  0
  8 20  4  0
  8 21  4  0
 21 22  4  0
 23 24  1  0
 23 25  1  0
 23 26  1  0
 22 27  4  0
  7 27  4  0
 12 28  4  0
 11 28  4  0
 13 29  1  0
 12 29  1  0
  2 30  1  0
 18 30  1  0
  3 30  1  0
 12 31  4  0
  6 31  4  0
  7 32  1  0
  6 32  1  0
 22 33  1  0
 16 34  1  0
  1 34  1  0
 36 37  2  0
 23 37  1  0
 35 37  2  0
 33 37  1  0
 21 38  1  0
M  END
