7L81_UD4_AAA_301
     RDKit          3D

 66 68  0  0  0  0  0  0  0  0999 V2000
   -2.8617    0.4492    6.6107 N   0  0  0  0  0  4  0  0  0  0  0  0
   -3.1932   -0.2687    5.5021 C   0  0  0  0  0  0  0  0  0  0  0  0
   -2.2310   -0.6022    4.5775 N   0  0  0  0  0  4  0  0  0  0  0  0
   -1.5800    0.8380    6.8382 C   0  0  0  0  0  0  0  0  0  0  0  0
   -0.5827    0.4989    5.9296 C   0  0  0  0  0  0  0  0  0  0  0  0
   -0.9318   -0.2326    4.7975 C   0  0  0  0  0  0  0  0  0  0  0  0
   -3.8626    1.3736    4.9345 O   0  0  0  0  0  0  0  0  0  0  0  0
   -2.9943    1.2089    4.0358 C   0  0  0  0  0  0  0  0  0  0  0  0
   -1.6344    1.8019    4.2175 C   0  0  0  0  0  0  0  0  0  0  0  0
   -3.2855    0.4163    2.8743 N   0  0  0  0  0  0  0  0  0  0  0  0
   -4.2170   -0.7196    2.8922 C   0  0  2  0  0  0  0  0  0  0  0  0
   -4.2420   -1.3470    4.3114 C   0  0  1  0  0  0  0  0  0  0  0  0
   -5.1890   -0.6965    5.1227 O   0  0  0  0  0  0  0  0  0  0  0  0
   -4.4982   -2.8686    4.2450 C   0  0  2  0  0  0  0  0  0  0  0  0
   -4.4633   -3.4466    5.5919 N   0  0  0  0  0  0  0  0  0  0  0  0
   -3.4087   -3.5305    3.3407 C   0  0  1  0  0  0  0  0  0  0  0  0
   -3.9132   -4.8136    2.6671 C   0  0  0  0  0  0  0  0  0  0  0  0
   -2.8498   -2.6526    2.3666 O   0  0  0  0  0  0  0  0  0  0  0  0
   -3.8198   -1.7703    1.8265 C   0  0  2  0  0  0  0  0  0  0  0  0
   -3.2830   -1.1142    0.6963 O   0  0  0  0  0  0  0  0  0  0  0  0
   -1.7739   -0.4297    1.1037 P   0  0  1  0  0  5  0  0  0  0  0  0
   -1.6324   -0.4658    2.6086 O   0  0  0  0  0  0  0  0  0  0  0  0
   -0.5251   -1.3435    0.4097 O   0  0  0  0  0  0  0  0  0  0  0  0
   -1.7514    1.1927    0.5782 O   0  0  0  0  0  0  0  0  0  0  0  0
   -2.9878    1.3907   -0.5736 P   0  0  1  0  0  5  0  0  0  0  0  0
   -3.8571    2.8007   -0.2255 O   0  0  0  0  0  0  0  0  0  0  0  0
   -2.3613    1.5438   -1.9418 O   0  0  0  0  0  0  0  0  0  0  0  0
   -4.0558    0.0606   -0.5659 O   0  0  0  0  0  0  0  0  0  0  0  0
   -4.5926   -0.0896    0.7282 C   0  0  0  0  0  0  0  0  0  0  0  0
   -3.7948   -1.1514    1.4940 C   0  0  1  0  0  0  0  0  0  0  0  0
   -2.8084   -0.5283    2.2801 O   0  0  0  0  0  0  0  0  0  0  0  0
   -4.6781   -1.9942    2.4152 C   0  0  1  0  0  0  0  0  0  0  0  0
   -5.1000   -3.1725    1.7762 O   0  0  0  0  0  0  0  0  0  0  0  0
   -3.7789   -2.2858    3.6026 C   0  0  1  0  0  0  0  0  0  0  0  0
   -3.3973   -3.6378    3.6402 O   0  0  0  0  0  0  0  0  0  0  0  0
   -2.5551   -1.3880    3.3683 C   0  0  2  0  0  0  0  0  0  0  0  0
   -4.3914   -0.6274    5.3412 O   0  0  0  0  0  0  0  0  0  0  0  0
   -1.2934    1.5007    7.8709 O   0  0  0  0  0  0  0  0  0  0  0  0
   -3.6054    0.7005    7.3020 H   0  0  0  0  0  0  0  0  0  0  0  0
    0.4462    0.7939    6.0953 H   0  0  0  0  0  0  0  0  0  0  0  0
   -0.1519   -0.5014    4.0946 H   0  0  0  0  0  0  0  0  0  0  0  0
   -1.1629    2.0015    3.2313 H   0  0  0  0  0  0  0  0  0  0  0  0
   -1.7080    2.7610    4.7738 H   0  0  0  0  0  0  0  0  0  0  0  0
   -0.9972    1.0948    4.7898 H   0  0  0  0  0  0  0  0  0  0  0  0
   -2.8961    0.7238    1.9533 H   0  0  0  0  0  0  0  0  0  0  0  0
   -5.2434   -0.3719    2.6377 H   0  0  0  0  0  0  0  0  0  0  0  0
   -3.2456   -1.2077    4.7880 H   0  0  0  0  0  0  0  0  0  0  0  0
   -6.0896   -0.8944    4.7544 H   0  0  0  0  0  0  0  0  0  0  0  0
   -5.5078   -3.0382    3.8020 H   0  0  0  0  0  0  0  0  0  0  0  0
   -5.2669   -3.0611    6.1398 H   0  0  0  0  0  0  0  0  0  0  0  0
   -4.6429   -4.4740    5.5175 H   0  0  0  0  0  0  0  0  0  0  0  0
   -2.5641   -3.8296    4.0002 H   0  0  0  0  0  0  0  0  0  0  0  0
   -3.1015   -5.2575    2.0513 H   0  0  0  0  0  0  0  0  0  0  0  0
   -4.7817   -4.6044    2.0078 H   0  0  0  0  0  0  0  0  0  0  0  0
   -4.2174   -5.5596    3.4306 H   0  0  0  0  0  0  0  0  0  0  0  0
   -4.7538   -2.3193    1.5496 H   0  0  0  0  0  0  0  0  0  0  0  0
   -0.5909   -2.2336    0.8396 H   0  0  0  0  0  0  0  0  0  0  0  0
   -4.6244    2.7853   -0.8513 H   0  0  0  0  0  0  0  0  0  0  0  0
   -4.5399    0.8724    1.2851 H   0  0  0  0  0  0  0  0  0  0  0  0
   -5.6540   -0.4253    0.6905 H   0  0  0  0  0  0  0  0  0  0  0  0
   -3.2868   -1.8119    0.7531 H   0  0  0  0  0  0  0  0  0  0  0  0
   -5.5630   -1.4150    2.7728 H   0  0  0  0  0  0  0  0  0  0  0  0
   -5.8102   -2.9073    1.1356 H   0  0  0  0  0  0  0  0  0  0  0  0
   -4.3156   -2.0189    4.5441 H   0  0  0  0  0  0  0  0  0  0  0  0
   -2.9941   -3.7903    4.5339 H   0  0  0  0  0  0  0  0  0  0  0  0
   -1.6832   -2.0209    3.0783 H   0  0  0  0  0  0  0  0  0  0  0  0
  1  2  4  0
  2  3  4  0
  1  4  4  0
  4  5  4  0
  3  6  4  0
  5  6  4  0
  7  8  2  0
  8  9  1  0
  8 10  1  0
 11 10  1  0
 11 12  1  0
 12 13  1  0
 12 14  1  0
 14 15  1  0
 14 16  1  0
 16 17  1  0
 16 18  1  0
 11 19  1  0
 18 19  1  0
 19 20  1  0
 21 20  1  1
 21 22  2  0
 21 23  1  0
 21 24  1  0
 25 24  1  1
 25 26  1  0
 25 27  2  0
 25 28  1  0
 28 29  1  0
 30 29  1  0
 30 31  1  0
 30 32  1  0
 32 33  1  0
 32 34  1  0
 34 35  1  0
 36  3  1  0
 31 36  1  0
 34 36  1  0
  2 37  2  0
  4 38  2  0
  1 39  1  0
  5 40  1  0
  6 41  1  0
  9 42  1  0
  9 43  1  0
  9 44  1  0
 10 45  1  0
 11 46  1  6
 12 47  1  1
 13 48  1  0
 14 49  1  6
 15 50  1  0
 15 51  1  0
 16 52  1  1
 17 53  1  0
 17 54  1  0
 17 55  1  0
 19 56  1  6
 23 57  1  0
 26 58  1  0
 29 59  1  0
 29 60  1  0
 30 61  1  6
 32 62  1  1
 33 63  1  0
 34 64  1  1
 35 65  1  0
 36 66  1  6
M  CHG  2   1   1   3   1
M  END
