1UNL_RRC_A_1293
     RDKit          3D

 52 54  0  0  0  0  0  0  0  0999 V2000
   41.4074   36.3101   40.8767 O   0  0  0  0  0  0  0  0  0  0  0  0
   40.1962   35.8373   40.3483 C   0  0  2  0  0  0  0  0  0  0  0  0
   39.1330   36.9490   40.3225 C   0  0  1  0  0  0  0  0  0  0  0  0
   39.1294   37.7451   41.6442 C   0  0  1  0  0  0  0  0  0  0  0  0
   37.8073   38.4797   41.8630 C   0  0  1  0  0  0  0  0  0  0  0  0
   39.3650   37.8385   39.1776 N   0  0  0  0  0  0  0  0  0  0  0  0
   38.2954   38.4536   38.4485 C   0  0  0  0  0  0  0  0  0  0  0  0
   36.9928   38.2330   38.8083 N   0  0  0  0  0  0  0  0  0  0  0  0
   36.0188   38.8367   38.0868 C   0  0  0  0  0  0  0  0  0  0  0  0
   34.6953   38.7540   38.2694 N   0  0  0  0  0  0  0  0  0  0  0  0
   33.9710   37.9969   39.2962 C   0  0  2  0  0  0  0  0  0  0  0  0
   33.1437   36.8813   38.6518 C   0  0  1  0  0  0  0  0  0  0  0  0
   33.0866   38.9341   40.1228 C   0  0  1  0  0  0  0  0  0  0  0  0
   34.1858   39.5452   37.2873 C   0  0  0  0  0  0  0  0  0  0  0  0
   36.2842   39.6441   37.0356 C   0  0  0  0  0  0  0  0  0  0  0  0
   35.1412   40.1143   36.5015 N   0  0  0  0  0  0  0  0  0  0  0  0
   38.5852   39.2714   37.3844 N   0  0  0  0  0  0  0  0  0  0  0  0
   37.6006   39.8824   36.6567 C   0  0  0  0  0  0  0  0  0  0  0  0
   37.9192   40.7352   35.5489 N   0  0  0  0  0  0  0  0  0  0  0  0
   39.2990   40.9161   35.1000 C   0  0  2  0  0  0  0  0  0  0  0  0
   40.2577   40.2596   36.0560 C   0  0  0  0  0  0  0  0  0  0  0  0
   40.7626   38.9772   35.7845 C   0  0  0  0  0  0  0  0  0  0  0  0
   41.6828   38.3843   36.6550 C   0  0  0  0  0  0  0  0  0  0  0  0
   42.1132   39.0713   37.7936 C   0  0  0  0  0  0  0  0  0  0  0  0
   41.6275   40.3544   38.0613 C   0  0  0  0  0  0  0  0  0  0  0  0
   40.7070   40.9506   37.1936 C   0  0  0  0  0  0  0  0  0  0  0  0
   41.5987   35.7699   41.6871 H   0  0  0  0  0  0  0  0  0  0  0  0
   39.8245   34.9590   40.9259 H   0  0  0  0  0  0  0  0  0  0  0  0
   40.3816   35.4833   39.3122 H   0  0  0  0  0  0  0  0  0  0  0  0
   38.1359   36.4651   40.2171 H   0  0  0  0  0  0  0  0  0  0  0  0
   39.2835   37.0492   42.4977 H   0  0  0  0  0  0  0  0  0  0  0  0
   39.9596   38.4845   41.6511 H   0  0  0  0  0  0  0  0  0  0  0  0
   37.8145   39.4328   41.2934 H   0  0  0  0  0  0  0  0  0  0  0  0
   36.9537   37.8647   41.5081 H   0  0  0  0  0  0  0  0  0  0  0  0
   37.6683   38.7125   42.9402 H   0  0  0  0  0  0  0  0  0  0  0  0
   40.3442   38.0293   38.8640 H   0  0  0  0  0  0  0  0  0  0  0  0
   34.7005   37.5205   39.9883 H   0  0  0  0  0  0  0  0  0  0  0  0
   32.7338   36.2085   39.4350 H   0  0  0  0  0  0  0  0  0  0  0  0
   32.3004   37.3035   38.0647 H   0  0  0  0  0  0  0  0  0  0  0  0
   33.7866   36.2801   37.9743 H   0  0  0  0  0  0  0  0  0  0  0  0
   32.7308   38.4154   41.0383 H   0  0  0  0  0  0  0  0  0  0  0  0
   33.6708   39.8274   40.4304 H   0  0  0  0  0  0  0  0  0  0  0  0
   32.2058   39.2670   39.5334 H   0  0  0  0  0  0  0  0  0  0  0  0
   33.1265   39.7117   37.1406 H   0  0  0  0  0  0  0  0  0  0  0  0
   37.1437   41.2374   35.0583 H   0  0  0  0  0  0  0  0  0  0  0  0
   39.5238   42.0024   35.0244 H   0  0  0  0  0  0  0  0  0  0  0  0
   39.4184   40.4769   34.0855 H   0  0  0  0  0  0  0  0  0  0  0  0
   40.4450   38.4385   34.9003 H   0  0  0  0  0  0  0  0  0  0  0  0
   42.0652   37.3939   36.4447 H   0  0  0  0  0  0  0  0  0  0  0  0
   42.8265   38.6117   38.4654 H   0  0  0  0  0  0  0  0  0  0  0  0
   41.9672   40.8885   38.9393 H   0  0  0  0  0  0  0  0  0  0  0  0
   40.3459   41.9491   37.4067 H   0  0  0  0  0  0  0  0  0  0  0  0
  1  2  1  0
  3  2  1  0
  3  4  1  0
  4  5  1  0
  3  6  1  0
  6  7  1  0
  7  8  2  0
  8  9  1  0
  9 10  1  0
 10 11  1  0
 11 12  1  0
 11 13  1  0
 10 14  1  0
  9 15  2  0
 14 16  2  0
 15 16  1  0
  7 17  1  0
 15 18  1  0
 17 18  2  0
 18 19  1  0
 19 20  1  0
 20 21  1  0
 21 22  2  0
 22 23  1  0
 23 24  2  0
 24 25  1  0
 21 26  1  0
 25 26  2  0
  1 27  1  0
  2 28  1  1
  2 29  1  0
  3 30  1  6
  4 31  1  1
  4 32  1  0
  5 33  1  6
  5 34  1  0
  5 35  1  0
  6 36  1  0
 11 37  1  1
 12 38  1  1
 12 39  1  0
 12 40  1  0
 13 41  1  1
 13 42  1  0
 13 43  1  0
 14 44  1  0
 19 45  1  0
 20 46  1  6
 20 47  1  0
 22 48  1  0
 23 49  1  0
 24 50  1  0
 25 51  1  0
 26 52  1  0
M  END
