1UNL_RRC_A_1293
     RDKit          3D

 26 28  0  0  0  0  0  0  0  0999 V2000
   61.7553   30.1186   21.0536 O   0  0  0  0  0  0  0  0  0  0  0  0
   62.4725   30.5410   22.1812 C   0  0  0  0  0  0  0  0  0  0  0  0
   61.5447   30.6909   23.3431 C   0  0  1  0  0  0  0  0  0  0  0  0
   60.4814   31.7336   23.1155 C   0  0  0  0  0  0  0  0  0  0  0  0
   61.1724   33.0438   22.8077 C   0  0  0  0  0  0  0  0  0  0  0  0
   60.9104   29.4358   23.6152 N   0  0  0  0  0  0  0  0  0  0  0  0
   60.2785   29.1219   24.8718 C   0  0  0  0  0  0  0  0  0  0  0  0
   59.6739   27.9123   25.0506 N   0  0  0  0  0  0  0  0  0  0  0  0
   59.0624   27.5586   26.1923 C   0  0  0  0  0  0  0  0  0  0  0  0
   58.4093   26.4597   26.6161 N   0  0  0  0  0  0  0  0  0  0  0  0
   58.1775   25.2450   25.8572 C   0  0  1  0  0  0  0  0  0  0  0  0
   58.8049   24.0805   26.5866 C   0  0  0  0  0  0  0  0  0  0  0  0
   56.7066   25.0570   25.6309 C   0  0  0  0  0  0  0  0  0  0  0  0
   57.9891   26.6560   27.8866 C   0  0  0  0  0  0  0  0  0  0  0  0
   59.0334   28.4460   27.2452 C   0  0  0  0  0  0  0  0  0  0  0  0
   58.3731   27.8985   28.2960 N   0  0  0  0  0  0  0  0  0  0  0  0
   60.2531   29.9906   25.8954 N   0  0  0  0  0  0  0  0  0  0  0  0
   59.6489   29.6648   27.0493 C   0  0  0  0  0  0  0  0  0  0  0  0
   59.6503   30.6318   28.1106 N   0  0  0  0  0  0  0  0  0  0  0  0
   60.0578   32.0197   27.8623 C   0  0  0  0  0  0  0  0  0  0  0  0
   61.4762   32.1618   28.2905 C   0  0  0  0  0  0  0  0  0  0  0  0
   62.4830   32.5395   27.4281 C   0  0  0  0  0  0  0  0  0  0  0  0
   63.7795   32.6555   27.8853 C   0  0  0  0  0  0  0  0  0  0  0  0
   64.0935   32.3974   29.2082 C   0  0  0  0  0  0  0  0  0  0  0  0
   63.0966   32.0160   30.0933 C   0  0  0  0  0  0  0  0  0  0  0  0
   61.8027   31.9033   29.6240 C   0  0  0  0  0  0  0  0  0  0  0  0
  1  2  1  0
  3  2  1  6
  3  4  1  0
  4  5  1  0
  3  6  1  0
  6  7  1  0
  7  8  2  0
  8  9  1  0
  9 10  1  0
 10 11  1  0
 11 12  1  1
 11 13  1  0
 10 14  1  0
  9 15  2  0
 14 16  2  0
 15 16  1  0
  7 17  1  0
 15 18  1  0
 17 18  2  0
 18 19  1  0
 19 20  1  0
 20 21  1  0
 21 22  2  0
 22 23  1  0
 23 24  2  0
 24 25  1  0
 21 26  1  0
 25 26  2  0
M  END
$$$$
