1UNL_RRC_A_1293
     RDKit          3D

 26 28  0  0  0  0  0  0  0  0999 V2000
   -4.7035   62.0851   65.8499 O   0  0  0  0  0  0  0  0  0  0  0  0
   -4.3780   60.9356   65.1171 C   0  0  0  0  0  0  0  0  0  0  0  0
   -5.2308   60.8589   63.8923 C   0  0  1  0  0  0  0  0  0  0  0  0
   -6.6348   61.3545   64.1218 C   0  0  0  0  0  0  0  0  0  0  0  0
   -7.4604   60.1945   64.6333 C   0  0  0  0  0  0  0  0  0  0  0  0
   -4.6341   61.6303   62.8434 N   0  0  0  0  0  0  0  0  0  0  0  0
   -5.1198   61.6346   61.4866 C   0  0  0  0  0  0  0  0  0  0  0  0
   -5.8021   60.5583   61.0003 N   0  0  0  0  0  0  0  0  0  0  0  0
   -6.2759   60.4946   59.7457 C   0  0  0  0  0  0  0  0  0  0  0  0
   -6.9619   59.5773   59.0374 N   0  0  0  0  0  0  0  0  0  0  0  0
   -7.4114   58.2805   59.5080 C   0  0  1  0  0  0  0  0  0  0  0  0
   -8.9127   58.1966   59.3636 C   0  0  0  0  0  0  0  0  0  0  0  0
   -6.6999   57.1915   58.7612 C   0  0  0  0  0  0  0  0  0  0  0  0
   -7.1784   60.0517   57.7895 C   0  0  0  0  0  0  0  0  0  0  0  0
   -6.0734   61.5573   58.8933 C   0  0  0  0  0  0  0  0  0  0  0  0
   -6.6266   61.2939   57.6831 N   0  0  0  0  0  0  0  0  0  0  0  0
   -4.9197   62.6733   60.6594 N   0  0  0  0  0  0  0  0  0  0  0  0
   -5.3818   62.6383   59.3993 C   0  0  0  0  0  0  0  0  0  0  0  0
   -5.1387   63.7756   58.5574 N   0  0  0  0  0  0  0  0  0  0  0  0
   -4.0628   64.7242   58.8678 C   0  0  0  0  0  0  0  0  0  0  0  0
   -4.4521   65.4687   60.0966 C   0  0  0  0  0  0  0  0  0  0  0  0
   -5.7166   65.9817   60.2906 C   0  0  0  0  0  0  0  0  0  0  0  0
   -6.0175   66.6617   61.4527 C   0  0  0  0  0  0  0  0  0  0  0  0
   -5.0640   66.8413   62.4396 C   0  0  0  0  0  0  0  0  0  0  0  0
   -3.7854   66.3336   62.2656 C   0  0  0  0  0  0  0  0  0  0  0  0
   -3.4962   65.6549   61.0982 C   0  0  0  0  0  0  0  0  0  0  0  0
  1  2  1  0
  3  2  1  1
  3  4  1  0
  4  5  1  0
  3  6  1  0
  6  7  1  0
  7  8  2  0
  8  9  1  0
  9 10  1  0
 10 11  1  0
 11 12  1  6
 11 13  1  0
 10 14  1  0
  9 15  2  0
 14 16  2  0
 15 16  1  0
  7 17  1  0
 15 18  1  0
 17 18  2  0
 18 19  1  0
 19 20  1  0
 20 21  1  0
 21 22  2  0
 22 23  1  0
 23 24  2  0
 24 25  1  0
 21 26  1  0
 25 26  2  0
M  END
$$$$
