1UNL_RRC_A_1293
     RDKit          3D

 26 28  0  0  0  0  0  0  0  0999 V2000
   60.4557   28.8005   23.2732 O   0  0  0  0  0  0  0  0  0  0  0  0
   60.5796   28.0119   24.4252 C   0  0  0  0  0  0  0  0  0  0  0  0
   59.7301   28.5763   25.5175 C   0  0  1  0  0  0  0  0  0  0  0  0
   59.0158   29.8396   25.1134 C   0  0  0  0  0  0  0  0  0  0  0  0
   58.8435   30.6933   26.3505 C   0  0  0  0  0  0  0  0  0  0  0  0
   58.7581   27.6043   25.9198 N   0  0  0  0  0  0  0  0  0  0  0  0
   58.4991   27.2635   27.2959 C   0  0  0  0  0  0  0  0  0  0  0  0
   59.0748   27.9852   28.3000 N   0  0  0  0  0  0  0  0  0  0  0  0
   58.8809   27.7177   29.6013 C   0  0  0  0  0  0  0  0  0  0  0  0
   59.3167   28.2588   30.7550 N   0  0  0  0  0  0  0  0  0  0  0  0
   60.2064   29.3963   30.8948 C   0  0  1  0  0  0  0  0  0  0  0  0
   61.5753   29.0180   30.3803 C   0  0  0  0  0  0  0  0  0  0  0  0
   59.6320   30.5846   30.1821 C   0  0  0  0  0  0  0  0  0  0  0  0
   58.7909   27.5708   31.7939 C   0  0  0  0  0  0  0  0  0  0  0  0
   58.0647   26.6679   29.9599 C   0  0  0  0  0  0  0  0  0  0  0  0
   58.0025   26.5686   31.3113 N   0  0  0  0  0  0  0  0  0  0  0  0
   57.7023   26.2389   27.6403 N   0  0  0  0  0  0  0  0  0  0  0  0
   57.4896   25.9475   28.9336 C   0  0  0  0  0  0  0  0  0  0  0  0
   56.6299   24.8408   29.2455 N   0  0  0  0  0  0  0  0  0  0  0  0
   56.0406   24.0229   28.1789 C   0  0  0  0  0  0  0  0  0  0  0  0
   57.1219   23.1779   27.6024 C   0  0  0  0  0  0  0  0  0  0  0  0
   57.5302   23.2793   26.2898 C   0  0  0  0  0  0  0  0  0  0  0  0
   58.5400   22.4685   25.8139 C   0  0  0  0  0  0  0  0  0  0  0  0
   59.1588   21.5444   26.6375 C   0  0  0  0  0  0  0  0  0  0  0  0
   58.7640   21.4253   27.9614 C   0  0  0  0  0  0  0  0  0  0  0  0
   57.7523   22.2422   28.4263 C   0  0  0  0  0  0  0  0  0  0  0  0
  1  2  1  0
  3  2  1  6
  3  4  1  0
  4  5  1  0
  3  6  1  0
  6  7  1  0
  7  8  2  0
  8  9  1  0
  9 10  1  0
 10 11  1  0
 11 12  1  6
 11 13  1  0
 10 14  1  0
  9 15  2  0
 14 16  2  0
 15 16  1  0
  7 17  1  0
 15 18  1  0
 17 18  2  0
 18 19  1  0
 19 20  1  0
 20 21  1  0
 21 22  2  0
 22 23  1  0
 23 24  2  0
 24 25  1  0
 21 26  1  0
 25 26  2  0
M  END
$$$$
