1UNL_RRC_A_1293
     RDKit          3D

 26 28  0  0  0  0  0  0  0  0999 V2000
   -5.1214   61.2949   65.1451 O   0  0  0  0  0  0  0  0  0  0  0  0
   -5.2279   62.2122   64.0907 C   0  0  0  0  0  0  0  0  0  0  0  0
   -4.7745   61.5738   62.8179 C   0  0  1  0  0  0  0  0  0  0  0  0
   -3.3120   61.2126   62.8300 C   0  0  0  0  0  0  0  0  0  0  0  0
   -2.5157   62.4892   62.6716 C   0  0  0  0  0  0  0  0  0  0  0  0
   -5.5413   60.3885   62.5763 N   0  0  0  0  0  0  0  0  0  0  0  0
   -6.0200   60.0050   61.2722 C   0  0  0  0  0  0  0  0  0  0  0  0
   -6.6666   58.8160   61.1027 N   0  0  0  0  0  0  0  0  0  0  0  0
   -7.1318   58.3957   59.9155 C   0  0  0  0  0  0  0  0  0  0  0  0
   -7.7858   57.2984   59.4887 N   0  0  0  0  0  0  0  0  0  0  0  0
   -8.1978   56.1675   60.2990 C   0  0  1  0  0  0  0  0  0  0  0  0
   -9.7068   56.1090   60.3331 C   0  0  0  0  0  0  0  0  0  0  0  0
   -7.5851   54.9067   59.7654 C   0  0  0  0  0  0  0  0  0  0  0  0
   -8.0103   57.4050   58.1593 C   0  0  0  0  0  0  0  0  0  0  0  0
   -6.9574   59.1891   58.8032 C   0  0  0  0  0  0  0  0  0  0  0  0
   -7.4961   58.5865   57.7138 N   0  0  0  0  0  0  0  0  0  0  0  0
   -5.8475   60.7822   60.1909 N   0  0  0  0  0  0  0  0  0  0  0  0
   -6.3019   60.3883   58.9904 C   0  0  0  0  0  0  0  0  0  0  0  0
   -6.0894   61.2576   57.8677 N   0  0  0  0  0  0  0  0  0  0  0  0
   -5.1708   62.3981   57.9635 C   0  0  0  0  0  0  0  0  0  0  0  0
   -5.8222   63.4384   58.8055 C   0  0  0  0  0  0  0  0  0  0  0  0
   -5.2009   64.0187   59.8904 C   0  0  0  0  0  0  0  0  0  0  0  0
   -5.8565   64.9798   60.6319 C   0  0  0  0  0  0  0  0  0  0  0  0
   -7.1408   65.3781   60.3045 C   0  0  0  0  0  0  0  0  0  0  0  0
   -7.7850   64.8078   59.2171 C   0  0  0  0  0  0  0  0  0  0  0  0
   -7.1186   63.8467   58.4826 C   0  0  0  0  0  0  0  0  0  0  0  0
  1  2  1  0
  3  2  1  1
  3  4  1  0
  4  5  1  0
  3  6  1  0
  6  7  1  0
  7  8  2  0
  8  9  1  0
  9 10  1  0
 10 11  1  0
 11 12  1  6
 11 13  1  0
 10 14  1  0
  9 15  2  0
 14 16  2  0
 15 16  1  0
  7 17  1  0
 15 18  1  0
 17 18  2  0
 18 19  1  0
 19 20  1  0
 20 21  1  0
 21 22  2  0
 22 23  1  0
 23 24  2  0
 24 25  1  0
 21 26  1  0
 25 26  2  0
M  END
$$$$
