1UNL_RRC_A_1293
     RDKit          3D

 26 28  0  0  0  0  0  0  0  0999 V2000
   -6.2895   62.4655   65.0845 O   0  0  0  0  0  0  0  0  0  0  0  0
   -5.3263   63.0422   64.2454 C   0  0  0  0  0  0  0  0  0  0  0  0
   -4.4896   61.9704   63.6256 C   0  0  1  0  0  0  0  0  0  0  0  0
   -3.6729   61.2053   64.6341 C   0  0  0  0  0  0  0  0  0  0  0  0
   -2.6439   62.1508   65.2138 C   0  0  0  0  0  0  0  0  0  0  0  0
   -5.3323   61.0516   62.9206 N   0  0  0  0  0  0  0  0  0  0  0  0
   -5.6360   61.1700   61.5168 C   0  0  0  0  0  0  0  0  0  0  0  0
   -6.3253   60.1804   60.8797 N   0  0  0  0  0  0  0  0  0  0  0  0
   -6.6354   60.2245   59.5742 C   0  0  0  0  0  0  0  0  0  0  0  0
   -7.2879   59.4058   58.7271 N   0  0  0  0  0  0  0  0  0  0  0  0
   -7.8872   58.1249   59.0519 C   0  0  1  0  0  0  0  0  0  0  0  0
   -9.3856   58.2910   59.1455 C   0  0  0  0  0  0  0  0  0  0  0  0
   -7.4844   57.0997   58.0338 C   0  0  0  0  0  0  0  0  0  0  0  0
   -7.3056   59.9645   57.4955 C   0  0  0  0  0  0  0  0  0  0  0  0
   -6.2476   61.3133   58.8251 C   0  0  0  0  0  0  0  0  0  0  0  0
   -6.6564   61.1626   57.5404 N   0  0  0  0  0  0  0  0  0  0  0  0
   -5.2557   62.2338   60.7909 N   0  0  0  0  0  0  0  0  0  0  0  0
   -5.5515   62.3059   59.4832 C   0  0  0  0  0  0  0  0  0  0  0  0
   -5.1196   63.4650   58.7545 N   0  0  0  0  0  0  0  0  0  0  0  0
   -4.0878   64.3546   59.3002 C   0  0  0  0  0  0  0  0  0  0  0  0
   -4.6738   65.0709   60.4661 C   0  0  0  0  0  0  0  0  0  0  0  0
   -4.0824   65.0815   61.7110 C   0  0  0  0  0  0  0  0  0  0  0  0
   -4.6736   65.7656   62.7531 C   0  0  0  0  0  0  0  0  0  0  0  0
   -5.8628   66.4498   62.5715 C   0  0  0  0  0  0  0  0  0  0  0  0
   -6.4753   66.4527   61.3274 C   0  0  0  0  0  0  0  0  0  0  0  0
   -5.8740   65.7643   60.2923 C   0  0  0  0  0  0  0  0  0  0  0  0
  1  2  1  0
  3  2  1  1
  3  4  1  0
  4  5  1  0
  3  6  1  0
  6  7  1  0
  7  8  2  0
  8  9  1  0
  9 10  1  0
 10 11  1  0
 11 12  1  6
 11 13  1  0
 10 14  1  0
  9 15  2  0
 14 16  2  0
 15 16  1  0
  7 17  1  0
 15 18  1  0
 17 18  2  0
 18 19  1  0
 19 20  1  0
 20 21  1  0
 21 22  2  0
 22 23  1  0
 23 24  2  0
 24 25  1  0
 21 26  1  0
 25 26  2  0
M  END
$$$$
