1UNL_RRC_A_1293
     RDKit          3D

 26 28  0  0  0  0  0  0  0  0999 V2000
   -3.9501   61.6172   65.6201 O   0  0  0  0  0  0  0  0  0  0  0  0
   -4.1137   60.6115   64.6578 C   0  0  0  0  0  0  0  0  0  0  0  0
   -5.3975   60.8204   63.9219 C   0  0  1  0  0  0  0  0  0  0  0  0
   -6.5620   61.0938   64.8377 C   0  0  0  0  0  0  0  0  0  0  0  0
   -7.1069   59.7632   65.3082 C   0  0  0  0  0  0  0  0  0  0  0  0
   -5.2562   61.9185   63.0134 N   0  0  0  0  0  0  0  0  0  0  0  0
   -5.6363   61.8538   61.6248 C   0  0  0  0  0  0  0  0  0  0  0  0
   -6.0464   60.6717   61.0818 N   0  0  0  0  0  0  0  0  0  0  0  0
   -6.4080   60.5405   59.7955 C   0  0  0  0  0  0  0  0  0  0  0  0
   -6.8389   59.5182   59.0319 N   0  0  0  0  0  0  0  0  0  0  0  0
   -7.0431   58.1465   59.4584 C   0  0  1  0  0  0  0  0  0  0  0  0
   -8.4893   57.9633   59.8543 C   0  0  0  0  0  0  0  0  0  0  0  0
   -6.6210   57.2050   58.3698 C   0  0  0  0  0  0  0  0  0  0  0  0
   -7.0608   59.9662   57.7752 C   0  0  0  0  0  0  0  0  0  0  0  0
   -6.3698   61.6411   58.9683 C   0  0  0  0  0  0  0  0  0  0  0  0
   -6.7709   61.2972   57.7189 N   0  0  0  0  0  0  0  0  0  0  0  0
   -5.5974   62.9299   60.8225 N   0  0  0  0  0  0  0  0  0  0  0  0
   -5.9531   62.8293   59.5317 C   0  0  0  0  0  0  0  0  0  0  0  0
   -5.8916   64.0109   58.7186 N   0  0  0  0  0  0  0  0  0  0  0  0
   -5.6711   65.3294   59.3243 C   0  0  0  0  0  0  0  0  0  0  0  0
   -4.2710   65.7388   59.0280 C   0  0  0  0  0  0  0  0  0  0  0  0
   -3.7348   65.7036   57.7587 C   0  0  0  0  0  0  0  0  0  0  0  0
   -2.4297   66.0976   57.5468 C   0  0  0  0  0  0  0  0  0  0  0  0
   -1.6384   66.5328   58.5955 C   0  0  0  0  0  0  0  0  0  0  0  0
   -2.1572   66.5764   59.8807 C   0  0  0  0  0  0  0  0  0  0  0  0
   -3.4648   66.1794   60.0803 C   0  0  0  0  0  0  0  0  0  0  0  0
  1  2  1  0
  3  2  1  1
  3  4  1  0
  4  5  1  0
  3  6  1  0
  6  7  1  0
  7  8  2  0
  8  9  1  0
  9 10  1  0
 10 11  1  0
 11 12  1  6
 11 13  1  0
 10 14  1  0
  9 15  2  0
 14 16  2  0
 15 16  1  0
  7 17  1  0
 15 18  1  0
 17 18  2  0
 18 19  1  0
 19 20  1  0
 20 21  1  0
 21 22  2  0
 22 23  1  0
 23 24  2  0
 24 25  1  0
 21 26  1  0
 25 26  2  0
M  END
$$$$
