1UNL_RRC_A_1293
     RDKit          3D

 26 28  0  0  0  0  0  0  0  0999 V2000
   63.2803  -10.7981   35.1190 O   0  0  0  0  0  0  0  0  0  0  0  0
   62.7801  -10.1409   36.2514 C   0  0  0  0  0  0  0  0  0  0  0  0
   62.0731   -8.8907   35.8389 C   0  0  1  0  0  0  0  0  0  0  0  0
   62.9121   -8.0056   34.9545 C   0  0  0  0  0  0  0  0  0  0  0  0
   64.2217   -7.7439   35.6654 C   0  0  0  0  0  0  0  0  0  0  0  0
   60.8672   -9.2287   35.1439 N   0  0  0  0  0  0  0  0  0  0  0  0
   59.7928   -8.2951   34.9184 C   0  0  0  0  0  0  0  0  0  0  0  0
   58.7546   -8.6309   34.1000 N   0  0  0  0  0  0  0  0  0  0  0  0
   57.7262   -7.8071   33.8424 C   0  0  0  0  0  0  0  0  0  0  0  0
   56.6091   -7.8912   33.0949 N   0  0  0  0  0  0  0  0  0  0  0  0
   56.1908   -9.0232   32.2893 C   0  0  1  0  0  0  0  0  0  0  0  0
   54.8406   -9.4992   32.7710 C   0  0  0  0  0  0  0  0  0  0  0  0
   56.1826   -8.6423   30.8386 C   0  0  0  0  0  0  0  0  0  0  0  0
   55.9131   -6.7370   33.2063 C   0  0  0  0  0  0  0  0  0  0  0  0
   57.7002   -6.5585   34.4232 C   0  0  0  0  0  0  0  0  0  0  0  0
   56.5850   -5.8898   34.0369 N   0  0  0  0  0  0  0  0  0  0  0  0
   59.7721   -7.0789   35.4872 N   0  0  0  0  0  0  0  0  0  0  0  0
   58.7567   -6.2334   35.2483 C   0  0  0  0  0  0  0  0  0  0  0  0
   58.7855   -4.9451   35.8813 N   0  0  0  0  0  0  0  0  0  0  0  0
   59.9179   -4.5480   36.7262 C   0  0  0  0  0  0  0  0  0  0  0  0
   59.5864   -3.2356   37.3454 C   0  0  0  0  0  0  0  0  0  0  0  0
   59.8718   -2.0305   36.7404 C   0  0  0  0  0  0  0  0  0  0  0  0
   59.5381   -0.8460   37.3641 C   0  0  0  0  0  0  0  0  0  0  0  0
   58.9149   -0.8432   38.5998 C   0  0  0  0  0  0  0  0  0  0  0  0
   58.6183   -2.0440   39.2268 C   0  0  0  0  0  0  0  0  0  0  0  0
   58.9573   -3.2229   38.5926 C   0  0  0  0  0  0  0  0  0  0  0  0
  1  2  1  0
  3  2  1  6
  3  4  1  0
  4  5  1  0
  3  6  1  0
  6  7  1  0
  7  8  2  0
  8  9  1  0
  9 10  1  0
 10 11  1  0
 11 12  1  1
 11 13  1  0
 10 14  1  0
  9 15  2  0
 14 16  2  0
 15 16  1  0
  7 17  1  0
 15 18  1  0
 17 18  2  0
 18 19  1  0
 19 20  1  0
 20 21  1  0
 21 22  2  0
 22 23  1  0
 23 24  2  0
 24 25  1  0
 21 26  1  0
 25 26  2  0
M  END
$$$$
