1UNL_RRC_A_1293
     RDKit          3D

 26 28  0  0  0  0  0  0  0  0999 V2000
   31.7061   42.6687   60.6924 O   0  0  0  0  0  0  0  0  0  0  0  0
   32.4538   42.7318   59.5087 C   0  0  0  0  0  0  0  0  0  0  0  0
   31.7385   43.5753   58.5037 C   0  0  1  0  0  0  0  0  0  0  0  0
   31.9167   45.0520   58.7423 C   0  0  0  0  0  0  0  0  0  0  0  0
   33.3994   45.3296   58.8575 C   0  0  0  0  0  0  0  0  0  0  0  0
   32.2111   43.2593   57.1890 N   0  0  0  0  0  0  0  0  0  0  0  0
   31.5257   42.3617   56.2937 C   0  0  0  0  0  0  0  0  0  0  0  0
   32.1481   41.9115   55.1667 N   0  0  0  0  0  0  0  0  0  0  0  0
   31.5656   41.0800   54.2882 C   0  0  0  0  0  0  0  0  0  0  0  0
   31.9478   40.5028   53.1330 N   0  0  0  0  0  0  0  0  0  0  0  0
   33.2319   40.6533   52.4746 C   0  0  1  0  0  0  0  0  0  0  0  0
   33.9205   39.3098   52.4236 C   0  0  0  0  0  0  0  0  0  0  0  0
   33.0407   41.2538   51.1134 C   0  0  0  0  0  0  0  0  0  0  0  0
   30.9347   39.7409   52.6615 C   0  0  0  0  0  0  0  0  0  0  0  0
   30.2777   40.6495   54.5186 C   0  0  0  0  0  0  0  0  0  0  0  0
   29.8788   39.8224   53.5201 N   0  0  0  0  0  0  0  0  0  0  0  0
   30.2699   41.9449   56.5230 N   0  0  0  0  0  0  0  0  0  0  0  0
   29.6614   41.1132   55.6623 C   0  0  0  0  0  0  0  0  0  0  0  0
   28.3181   40.7000   55.9555 N   0  0  0  0  0  0  0  0  0  0  0  0
   27.6671   41.0951   57.2101 C   0  0  0  0  0  0  0  0  0  0  0  0
   27.4164   39.8600   58.0021 C   0  0  0  0  0  0  0  0  0  0  0  0
   26.3464   39.0242   57.7647 C   0  0  0  0  0  0  0  0  0  0  0  0
   26.1681   37.8919   58.5325 C   0  0  0  0  0  0  0  0  0  0  0  0
   27.0525   37.5744   59.5485 C   0  0  0  0  0  0  0  0  0  0  0  0
   28.1359   38.4010   59.8050 C   0  0  0  0  0  0  0  0  0  0  0  0
   28.3038   39.5314   59.0298 C   0  0  0  0  0  0  0  0  0  0  0  0
  1  2  1  0
  3  2  1  1
  3  4  1  0
  4  5  1  0
  3  6  1  0
  6  7  1  0
  7  8  2  0
  8  9  1  0
  9 10  1  0
 10 11  1  0
 11 12  1  6
 11 13  1  0
 10 14  1  0
  9 15  2  0
 14 16  2  0
 15 16  1  0
  7 17  1  0
 15 18  1  0
 17 18  2  0
 18 19  1  0
 19 20  1  0
 20 21  1  0
 21 22  2  0
 22 23  1  0
 23 24  2  0
 24 25  1  0
 21 26  1  0
 25 26  2  0
M  END
$$$$
