7XFA_D9J_A_301
     RDKit          3D

 41 45  0  0  0  0  0  0  0  0999 V2000
  -24.5896   -8.5610   -1.4106 F   0  0  0  0  0  0  0  0  0  0  0  0
  -24.0703   -9.5628   -2.1840 C   0  0  2  0  0  0  0  0  0  0  0  0
  -22.7413   -9.2389   -2.3910 F   0  0  0  0  0  0  0  0  0  0  0  0
  -24.6477   -9.6119   -3.4440 F   0  0  0  0  0  0  0  0  0  0  0  0
  -24.1251  -10.8891   -1.4944 C   0  0  0  0  0  0  0  0  0  0  0  0
  -24.4418  -12.0527   -2.1670 C   0  0  0  0  0  0  0  0  0  0  0  0
  -24.4950  -13.2836   -1.5411 C   0  0  0  0  0  0  0  0  0  0  0  0
  -24.2132  -13.3135   -0.1827 C   0  0  0  0  0  0  0  0  0  0  0  0
  -24.2538  -14.8286    0.7044 Cl  0  0  0  0  0  0  0  0  0  0  0  0
  -23.8969  -12.1474    0.4859 C   0  0  0  0  0  0  0  0  0  0  0  0
  -23.8412  -10.9207   -0.1251 C   0  0  0  0  0  0  0  0  0  0  0  0
  -23.5163   -9.7560    0.5888 N   0  0  0  0  0  0  0  0  0  0  0  0
  -24.3047   -8.7019    0.7924 N   0  0  0  0  0  0  0  0  0  0  0  0
  -23.6278   -7.7837    1.5273 C   0  0  0  0  0  0  0  0  0  0  0  0
  -24.1549   -6.4458    1.9790 C   0  0  0  0  0  0  0  0  0  0  0  0
  -22.4003   -8.2619    1.7908 N   0  0  0  0  0  0  0  0  0  0  0  0
  -22.3341   -9.4727    1.2137 C   0  0  0  0  0  0  0  0  0  0  0  0
  -21.1162  -10.3427    1.2728 C   0  0  1  0  0  0  0  0  0  0  0  0
  -19.9451   -9.5596    0.7410 C   0  0  2  0  0  0  0  0  0  0  0  0
  -19.6543   -9.9003   -0.5976 O   0  0  0  0  0  0  0  0  0  0  0  0
  -20.9439  -10.9661    2.4479 O   0  0  0  0  0  0  0  0  0  0  0  0
  -20.1440  -10.5071    3.4264 C   0  0  2  0  0  0  0  0  0  0  0  0
  -20.8360  -10.1244    4.7243 C   0  0  0  0  0  0  0  0  0  0  0  0
  -21.9858  -10.9198    4.9111 O   0  0  0  0  0  0  0  0  0  0  0  0
  -19.1024   -9.4783    3.0053 C   0  0  2  0  0  0  0  0  0  0  0  0
  -19.6478   -8.2232    3.1156 O   0  0  0  0  0  0  0  0  0  0  0  0
  -18.7468   -9.8518    1.5765 C   0  0  2  0  0  0  0  0  0  0  0  0
  -17.5640   -9.1386    1.1510 N   0  0  0  0  0  0  0  0  0  0  0  0
  -16.5005   -9.6043    0.4391 C   0  0  0  0  0  0  0  0  0  0  0  0
  -17.3655   -7.8548    1.4261 N   0  0  0  0  0  0  0  0  0  0  0  0
  -16.1965   -7.4537    0.9152 N   0  0  0  0  0  0  0  0  0  0  0  0
  -15.6528   -8.5258    0.3031 C   0  0  0  0  0  0  0  0  0  0  0  0
  -14.3628   -8.4840   -0.3814 C   0  0  0  0  0  0  0  0  0  0  0  0
  -13.2129   -8.5553    0.3799 C   0  0  0  0  0  0  0  0  0  0  0  0
  -11.9581   -8.5199   -0.2196 C   0  0  0  0  0  0  0  0  0  0  0  0
  -10.8426   -8.5928    0.5708 F   0  0  0  0  0  0  0  0  0  0  0  0
  -11.8713   -8.4127   -1.5879 C   0  0  0  0  0  0  0  0  0  0  0  0
  -10.2715   -8.3712   -2.2987 Cl  0  0  0  0  0  0  0  0  0  0  0  0
  -13.0232   -8.3436   -2.3211 C   0  0  0  0  0  0  0  0  0  0  0  0
  -12.9452   -8.2388   -3.6641 F   0  0  0  0  0  0  0  0  0  0  0  0
  -14.2729   -8.3763   -1.7547 C   0  0  0  0  0  0  0  0  0  0  0  0
  2  1  1  1
  2  3  1  0
  2  4  1  0
  2  5  1  0
  5  6  2  0
  6  7  1  0
  7  8  2  0
  8  9  1  0
  8 10  1  0
 10 11  2  0
  5 11  1  0
 11 12  1  0
 12 13  1  0
 13 14  2  0
 15 14  1  6
 14 16  1  0
 16 17  2  0
 12 17  1  0
 18 17  1  1
 18 19  1  0
 19 20  1  6
 18 21  1  0
 22 21  1  6
 22 23  1  0
 23 24  1  1
 22 25  1  0
 25 26  1  6
 25 27  1  0
 19 27  1  0
 27 28  1  6
 28 29  1  0
 28 30  1  0
 30 31  2  0
 29 32  2  0
 31 32  1  0
 32 33  1  0
 33 34  2  0
 34 35  1  0
 35 36  1  0
 35 37  2  0
 37 38  1  0
 37 39  1  0
 39 40  1  0
 39 41  2  0
 33 41  1  0
M  END
$$$$
