
     RDKit          3D

 32 36  0  0  0  0  0  0  0  0999 V2000
  -22.1960  -39.1333    1.9868 N   0  0  0  0  0  0  0  0  0  0  0  0
  -23.5090  -40.9916   -0.8287 N   0  0  0  0  0  0  0  0  0  0  0  0
  -19.9754  -38.2154    2.3352 C   0  0  0  0  0  0  0  0  0  0  0  0
  -20.8753  -38.9191    1.5413 C   0  0  0  0  0  0  0  0  0  0  0  0
  -20.4759  -39.4187    0.2948 C   0  0  0  0  0  0  0  0  0  0  0  0
  -23.1792  -39.8151    1.2858 C   0  0  0  0  0  0  0  0  0  0  0  0
  -21.4699  -40.1373   -0.4714 C   0  0  0  0  0  0  0  0  0  0  0  0
  -23.0386  -41.9565   -3.0517 C   0  0  0  0  0  0  0  0  0  0  0  0
  -15.0999  -36.9276   -0.8178 C   0  0  0  0  0  0  0  0  0  0  0  0
  -14.7171  -39.2831   -0.4611 C   0  0  0  0  0  0  0  0  0  0  0  0
  -17.2873  -35.8217   -0.2843 C   0  0  0  0  0  0  0  0  0  0  0  0
  -12.8460  -33.2595   -2.7409 C   0  0  0  0  0  0  0  0  0  0  0  0
  -19.1719  -39.2141   -0.1589 C   0  0  0  0  0  0  0  0  0  0  0  0
  -16.8796  -38.3068    0.1099 C   0  0  0  0  0  0  0  0  0  0  0  0
  -16.4117  -37.0463   -0.3259 C   0  0  0  0  0  0  0  0  0  0  0  0
  -14.2584  -38.0387   -0.8772 C   0  0  0  0  0  0  0  0  0  0  0  0
  -16.0162  -39.4150    0.0316 C   0  0  0  0  0  0  0  0  0  0  0  0
  -12.7094  -35.3957   -2.6369 C   0  0  0  0  0  0  0  0  0  0  0  0
  -12.0457  -33.5286   -1.6556 C   0  0  0  0  0  0  0  0  0  0  0  0
  -18.2453  -38.5014    0.6249 C   0  0  0  0  0  0  0  0  0  0  0  0
  -18.6672  -38.0087    1.8779 C   0  0  0  0  0  0  0  0  0  0  0  0
  -22.6524  -41.2188   -1.8315 C   0  0  0  0  0  0  0  0  0  0  0  0
  -22.7354  -40.2968    0.0428 N   0  0  0  0  0  0  0  0  0  0  0  0
  -21.3910  -40.7075   -1.6539 N   0  0  0  0  0  0  0  0  0  0  0  0
  -12.9469  -37.9106   -1.4296 N   0  0  0  0  0  0  0  0  0  0  0  0
  -11.9658  -34.8917   -1.6011 N   0  0  0  0  0  0  0  0  0  0  0  0
  -13.2488  -34.4194   -3.3531 N   0  0  0  0  0  0  0  0  0  0  0  0
  -24.3222  -39.9921    1.6851 O   0  0  0  0  0  0  0  0  0  0  0  0
  -14.0952  -37.2774   -3.6695 O   0  0  0  0  0  0  0  0  0  0  0  0
  -11.5844  -37.5065   -3.5354 O   0  0  0  0  0  0  0  0  0  0  0  0
  -12.8508  -37.1369   -2.9410 S   0  0  0  0  0  6  0  0  0  0  0  0
  -17.5972  -37.1230    2.9106 Cl  0  0  0  0  0  0  0  0  0  0  0  0
  1  4  4  0
  3  4  4  0
  4  5  4  0
  1  6  4  0
  5  7  4  0
  5 13  4  0
  9 15  4  0
 11 15  1  0
 14 15  4  0
  9 16  4  0
 10 16  4  0
 10 17  4  0
 14 17  4  0
 12 19  4  0
 13 20  4  0
 14 20  1  0
 20 21  4  0
  3 21  4  0
  8 22  1  0
  2 22  4  0
  2 23  4  0
  7 23  4  0
  6 23  4  0
 22 24  4  0
  7 24  4  0
 16 25  1  0
 19 26  4  0
 18 26  4  0
 12 27  4  0
 18 27  4  0
  6 28  2  0
 18 31  1  0
 30 31  2  0
 29 31  2  0
 25 31  1  0
 21 32  1  0
M  END
