
     RDKit          3D

 12 13  0  0  0  0  0  0  0  0999 V2000
   15.2626   12.6725   38.3403 N   0  0  0  0  0  0  0  0  0  0  0  0
   15.3260   13.2039   39.5833 C   0  0  0  0  0  0  0  0  0  0  0  0
   15.9468   12.5946   40.6708 C   0  0  0  0  0  0  0  0  0  0  0  0
   16.5296   11.3421   40.4473 C   0  0  0  0  0  0  0  0  0  0  0  0
   16.4836   10.7695   39.1797 C   0  0  0  0  0  0  0  0  0  0  0  0
   15.8458   11.4673   38.1685 C   0  0  0  0  0  0  0  0  0  0  0  0
   16.5657   14.5959   42.0350 N   0  0  0  0  0  0  0  0  0  0  0  0
   15.9385   13.2595   42.0246 C   0  0  2  0  0  0  0  0  0  0  0  0
   16.7430   12.4572   43.0611 C   0  0  0  0  0  0  0  0  0  0  0  0
   17.6398   13.4767   43.7523 C   0  0  0  0  0  0  0  0  0  0  0  0
   17.0140   14.8140   43.4098 C   0  0  0  0  0  0  0  0  0  0  0  0
   15.6660   15.6482   41.5788 C   0  0  0  0  0  0  0  0  0  0  0  0
  1  2  4  0
  2  3  4  0
  3  4  4  0
  4  5  4  0
  1  6  4  0
  5  6  4  0
  8  3  1  6
  7  8  1  0
  8  9  1  0
  9 10  1  0
  7 11  1  0
 10 11  1  0
  7 12  1  0
M  END
