6ZAE_ACV_A_403
     RDKit          3D

 24 23  0  0  0  0  0  0  0  0999 V2000
   48.9031   82.5260    0.5995 C   0  0  0  0  0  0  0  0  0  0  0  0
   50.2101   81.8852    0.2949 C   0  0  2  0  0  0  0  0  0  0  0  0
   51.2402   82.1994    1.3691 C   0  0  0  0  0  0  0  0  0  0  0  0
   50.8159   81.6594    2.7135 C   0  0  0  0  0  0  0  0  0  0  0  0
   50.7438   82.6966    3.7852 C   0  0  0  0  0  0  0  0  0  0  0  0
   51.3750   82.3366    5.0584 C   0  0  0  0  0  0  0  0  0  0  0  0
   50.5318   81.9259    6.1300 N   0  0  0  0  0  0  0  0  0  0  0  0
   51.1137   81.5291    7.3949 C   0  0  2  0  0  0  0  0  0  0  0  0
   51.9604   80.3404    7.2903 C   0  0  0  0  0  0  0  0  0  0  0  0
   50.6652   82.2211   -1.0268 N   0  0  0  0  0  0  0  0  0  0  0  0
   52.6095   82.3584    5.2912 O   0  0  0  0  0  0  0  0  0  0  0  0
   49.9557   81.3357    8.3673 C   0  0  0  0  0  0  0  0  0  0  0  0
   48.8809   82.7847    8.3971 S   0  0  0  0  0  0  0  0  0  0  0  0
   51.4632   79.3008    6.7462 O   0  0  0  0  0  0  0  0  0  0  0  0
   48.2746   83.3217   -0.3776 O   0  0  0  0  0  0  0  0  0  0  0  0
   48.3120   82.3962    1.7045 O   0  0  0  0  0  0  0  0  0  0  0  0
   53.2773   80.3849    7.7872 N   0  0  0  0  0  0  0  0  0  0  0  0
   54.1024   79.1968    7.5968 C   0  0  1  0  0  0  0  0  0  0  0  0
   55.1371   79.5942    6.6058 C   0  0  0  0  0  0  0  0  0  0  0  0
   54.7323   78.7203    8.8873 C   0  0  2  0  0  0  0  0  0  0  0  0
   53.7323   78.2025    9.8675 C   0  0  0  0  0  0  0  0  0  0  0  0
   55.4444   79.9044    9.4909 C   0  0  0  0  0  0  0  0  0  0  0  0
   55.4582   80.8201    6.4845 O   0  0  0  0  0  0  0  0  0  0  0  0
   55.7898   78.6815    5.7843 O   0  0  0  0  0  0  0  0  0  0  0  0
  1  2  1  0
  3  2  1  6
  3  4  1  0
  4  5  1  1
  5  6  1  1
  6  7  1  0
  8  7  1  6
  8  9  1  0
  2 10  1  6
  6 11  2  0
  8 12  1  0
 12 13  1  1
  9 14  2  0
  1 15  1  0
  1 16  2  0
  9 17  1  0
 18 17  1  1
 18 19  1  0
 18 20  1  0
 20 21  1  1
 22 20  1  1
 19 23  2  0
 19 24  1  0
M  END
$$$$
