7YZU_DO7_A_401
     RDKit          3D

 16 16  0  0  0  0  0  0  0  0999 V2000
  -11.3018  -33.2824  -19.4025 C   0  0  0  0  0  0  0  0  0  0  0  0
  -10.3138  -35.1174  -20.8056 C   0  0  1  0  0  0  0  0  0  0  0  0
  -10.3066  -36.6349  -20.7524 C   0  0  1  0  0  0  0  0  0  0  0  0
   -9.9493  -37.1449  -19.3782 C   0  0  2  0  0  0  0  0  0  0  0  0
  -10.3710  -36.7277  -16.0750 C   0  0  0  0  0  0  0  0  0  0  0  0
  -10.8316  -36.5679  -18.3174 C   0  0  1  0  0  0  0  0  0  0  0  0
  -10.6071  -34.6126  -19.4317 C   0  0  2  0  0  0  0  0  0  0  0  0
  -10.0685  -36.0495  -17.2596 O   0  0  0  0  0  0  0  0  0  0  0  0
  -11.5324  -35.5161  -18.8720 O   0  0  0  0  0  0  0  0  0  0  0  0
  -11.5407  -32.5864  -17.8142 S   0  0  2  0  0  0  0  0  0  0  0  0
  -10.8098  -31.3065  -17.6060 O   0  0  0  0  0  0  0  0  0  0  0  0
  -11.2747  -33.5874  -16.7248 O   0  0  0  0  0  0  0  0  0  0  0  0
  -13.1934  -32.1963  -17.6967 O   0  0  0  0  0  0  0  0  0  0  0  0
   -8.9940  -34.7303  -21.1302 O   0  0  0  0  0  0  0  0  0  0  0  0
  -11.5162  -37.1710  -21.1735 O   0  0  0  0  0  0  0  0  0  0  0  0
   -8.6248  -36.8223  -19.1460 O   0  0  0  0  0  0  0  0  0  0  0  0
  2  3  1  0
  3  4  1  0
  4  6  1  0
  7  1  1  6
  2  7  1  0
  6  8  1  1
  5  8  1  0
  7  9  1  0
  6  9  1  0
  1 10  1  0
 10 11  2  0
 10 12  2  0
 10 13  1  6
  2 14  1  1
  3 15  1  1
  4 16  1  1
M  END
$$$$
