
     RDKit          3D

 26 29  0  0  0  0  0  0  0  0999 V2000
   -8.0563   -9.8761   10.6941 C   0  0  0  0  0  0  0  0  0  0  0  0
   -7.1582   -8.2977   12.3015 C   0  0  0  0  0  0  0  0  0  0  0  0
   -8.4665   -9.2059    8.4590 O   0  0  0  0  0  0  0  0  0  0  0  0
  -10.2225  -13.9608   17.3856 C   0  0  0  0  0  0  0  0  0  0  0  0
   -8.8178  -14.0366   17.1936 O   0  0  0  0  0  0  0  0  0  0  0  0
   -8.3473  -13.9932   15.9037 C   0  0  0  0  0  0  0  0  0  0  0  0
   -8.6780  -12.9987   14.9759 C   0  0  0  0  0  0  0  0  0  0  0  0
   -7.4689  -15.0284   15.5304 C   0  0  0  0  0  0  0  0  0  0  0  0
   -7.1925  -15.9631   16.4984 O   0  0  0  0  0  0  0  0  0  0  0  0
   -6.7381  -17.2388   16.0721 C   0  0  0  0  0  0  0  0  0  0  0  0
   -6.9445  -15.0544   14.2333 C   0  0  0  0  0  0  0  0  0  0  0  0
   -7.2726  -14.0540   13.3052 C   0  0  0  0  0  0  0  0  0  0  0  0
   -6.7422  -14.1401   11.8933 C   0  0  0  0  0  0  0  0  0  0  0  0
   -6.9386  -12.8526   11.0790 C   0  0  0  0  0  0  0  0  0  0  0  0
   -8.2866  -12.3200   11.2939 N   0  0  0  0  0  0  0  0  0  0  0  0
   -8.6344  -11.2346   10.3649 C   0  0  0  0  0  0  0  0  0  0  0  0
   -8.4811  -11.8983   12.6954 C   0  0  1  0  0  0  0  0  0  0  0  0
   -8.1484  -13.0198   13.6739 C   0  0  0  0  0  0  0  0  0  0  0  0
   -7.6777  -10.6300   13.0798 C   0  0  0  0  0  0  0  0  0  0  0  0
   -7.6485   -9.5744   12.0033 C   0  0  0  0  0  0  0  0  0  0  0  0
   -7.1080   -7.3059   11.3195 C   0  0  0  0  0  0  0  0  0  0  0  0
   -7.5401   -7.5742   10.0187 C   0  0  0  0  0  0  0  0  0  0  0  0
   -7.5659   -6.6475    9.0094 O   0  0  0  0  0  0  0  0  0  0  0  0
   -7.7067   -5.2812    9.3743 C   0  0  0  0  0  0  0  0  0  0  0  0
   -7.9915   -8.8716    9.7072 C   0  0  0  0  0  0  0  0  0  0  0  0
   -7.4707   -9.8107    7.6346 C   0  0  0  0  0  0  0  0  0  0  0  0
  4  5  1  0
  5  6  1  0
  6  7  4  0
  6  8  4  0
  8  9  1  0
  9 10  1  0
  8 11  4  0
 11 12  4  0
 12 13  1  0
 13 14  1  0
 14 15  1  0
 15 16  1  0
  1 16  1  0
 15 17  1  0
  7 18  4  0
 12 18  4  0
 17 18  1  0
 17 19  1  1
 19 20  1  0
  2 20  4  0
  1 20  4  0
  2 21  4  0
 21 22  4  0
 22 23  1  0
 23 24  1  0
  1 25  4  0
 22 25  4  0
  3 25  1  0
  3 26  1  0
M  END
