1T9B_1CS_B_1695
     RDKit          3D

 23 24  0  0  0  0  0  0  0  0999 V2000
   14.6133   44.5803  125.0039 C   0  0  0  0  0  0  0  0  0  0  0  0
   13.4953   43.9958  125.6269 O   0  0  0  0  0  0  0  0  0  0  0  0
   12.4359   44.8283  126.1319 C   0  0  0  0  0  0  0  0  0  0  0  0
   12.7472   46.1580  126.5102 N   0  0  0  0  0  0  0  0  0  0  0  0
   11.6847   46.9723  127.0062 C   0  0  0  0  0  0  0  0  0  0  0  0
   12.0040   48.3087  127.3923 C   0  0  0  0  0  0  0  0  0  0  0  0
   10.3622   46.4817  127.1284 N   0  0  0  0  0  0  0  0  0  0  0  0
   10.1005   45.1254  126.7323 C   0  0  0  0  0  0  0  0  0  0  0  0
    8.8561   44.6231  126.8450 N   0  0  0  0  0  0  0  0  0  0  0  0
    8.5424   43.3167  126.7786 C   0  0  0  0  0  0  0  0  0  0  0  0
    9.1828   42.3803  126.2634 O   0  0  0  0  0  0  0  0  0  0  0  0
    7.3698   43.1427  127.4276 N   0  0  0  0  0  0  0  0  0  0  0  0
    6.8808   41.6761  128.0246 S   0  0  2  0  0  0  0  0  0  0  0  0
    5.9277   40.8278  127.3605 O   0  0  0  0  0  0  0  0  0  0  0  0
    6.4827   42.4136  129.2109 O   0  0  0  0  0  0  0  0  0  0  0  0
    8.3242   40.9364  128.7065 C   0  0  0  0  0  0  0  0  0  0  0  0
    8.4029   39.5523  128.3148 C   0  0  0  0  0  0  0  0  0  0  0  0
    9.5333   38.7155  128.7575 C   0  0  0  0  0  0  0  0  0  0  0  0
   10.5866   39.3118  129.6029 C   0  0  0  0  0  0  0  0  0  0  0  0
   10.4904   40.6743  129.9794 C   0  0  0  0  0  0  0  0  0  0  0  0
    9.3835   41.4975  129.5504 C   0  0  0  0  0  0  0  0  0  0  0  0
   11.1568   44.3417  126.2416 N   0  0  0  0  0  0  0  0  0  0  0  0
    9.3555   43.1271  130.0545 Cl  0  0  0  0  0  0  0  0  0  0  0  0
  1  2  1  0
  2  3  1  0
  3  4  2  0
  4  5  1  0
  5  6  1  0
  5  7  2  0
  7  8  1  0
  8  9  1  0
  9 10  1  0
 10 11  2  0
 10 12  1  0
 13 12  1  6
 13 14  2  0
 13 15  2  0
 13 16  1  0
 16 17  2  0
 17 18  1  0
 18 19  2  0
 19 20  1  0
 16 21  1  0
 20 21  2  0
  3 22  1  0
  8 22  2  0
 21 23  1  0
M  END
