1T9B_1CS_B_1695
     RDKit          3D

 23 24  0  0  0  0  0  0  0  0999 V2000
   14.7056   44.6382  125.2061 C   0  0  0  0  0  0  0  0  0  0  0  0
   13.5721   44.0386  125.7852 O   0  0  0  0  0  0  0  0  0  0  0  0
   12.4621   44.8527  126.2039 C   0  0  0  0  0  0  0  0  0  0  0  0
   12.7125   46.2024  126.5557 N   0  0  0  0  0  0  0  0  0  0  0  0
   11.6005   46.9980  126.9660 C   0  0  0  0  0  0  0  0  0  0  0  0
   11.8582   48.3549  127.3257 C   0  0  0  0  0  0  0  0  0  0  0  0
   10.2882   46.4705  127.0309 N   0  0  0  0  0  0  0  0  0  0  0  0
   10.0890   45.0952  126.6650 C   0  0  0  0  0  0  0  0  0  0  0  0
    8.8555   44.5581  126.7252 N   0  0  0  0  0  0  0  0  0  0  0  0
    8.5846   43.2412  126.6838 C   0  0  0  0  0  0  0  0  0  0  0  0
    9.2800   42.3098  126.2352 O   0  0  0  0  0  0  0  0  0  0  0  0
    7.3831   43.0507  127.2726 N   0  0  0  0  0  0  0  0  0  0  0  0
    6.9047   41.5885  127.8888 S   0  0  2  0  0  0  0  0  0  0  0  0
    6.0157   40.6911  127.2010 O   0  0  0  0  0  0  0  0  0  0  0  0
    6.4193   42.3492  129.0270 O   0  0  0  0  0  0  0  0  0  0  0  0
    8.3289   40.9153  128.6727 C   0  0  0  0  0  0  0  0  0  0  0  0
    8.4700   39.5230  128.3308 C   0  0  0  0  0  0  0  0  0  0  0  0
    9.5979   38.7357  128.8617 C   0  0  0  0  0  0  0  0  0  0  0  0
   10.5843   39.3901  129.7442 C   0  0  0  0  0  0  0  0  0  0  0  0
   10.4271   40.7598  130.0706 C   0  0  0  0  0  0  0  0  0  0  0  0
    9.3223   41.5347  129.5550 C   0  0  0  0  0  0  0  0  0  0  0  0
   11.1937   44.3301  126.2588 N   0  0  0  0  0  0  0  0  0  0  0  0
    9.2182   43.1772  130.0039 Cl  0  0  0  0  0  0  0  0  0  0  0  0
  1  2  1  0
  2  3  1  0
  3  4  2  0
  4  5  1  0
  5  6  1  0
  5  7  2  0
  7  8  1  0
  8  9  1  0
  9 10  1  0
 10 11  2  0
 10 12  1  0
 13 12  1  6
 13 14  2  0
 13 15  2  0
 13 16  1  0
 16 17  2  0
 17 18  1  0
 18 19  2  0
 19 20  1  0
 16 21  1  0
 20 21  2  0
  3 22  1  0
  8 22  2  0
 21 23  1  0
M  END
