7SZA_DUI_A_501
     RDKit          3D

 31 33  0  0  0  0  0  0  0  0999 V2000
   -3.0071   -0.6994    2.7353 C   0  0  0  0  0  0  0  0  0  0  0  0
   -4.0107    0.1588    2.2419 C   0  0  0  0  0  0  0  0  0  0  0  0
   -4.2490    0.2561    0.8623 C   0  0  0  0  0  0  0  0  0  0  0  0
   -3.4705   -0.5184    0.0055 C   0  0  0  0  0  0  0  0  0  0  0  0
   -3.4863   -0.6085   -1.4482 C   0  0  0  0  0  0  0  0  0  0  0  0
   -2.0079   -1.6753   -3.2690 C   0  0  1  0  0  0  0  0  0  0  0  0
    0.8970   -0.7446   -6.1469 O   0  0  0  0  0  0  0  0  0  0  0  0
   -0.4178   -3.2935   -2.4787 O   0  0  0  0  0  0  0  0  0  0  0  0
   -2.5093   -1.5494   -1.8960 N   0  0  0  0  0  0  0  0  0  0  0  0
   -1.9305   -0.2869   -3.9298 C   0  0  0  0  0  0  0  0  0  0  0  0
   -1.3196   -0.3675   -5.3322 C   0  0  0  0  0  0  0  0  0  0  0  0
    0.3058   -2.0224   -4.2898 N   0  0  0  0  0  0  0  0  0  0  0  0
   -1.2098   -2.3422    2.3705 N   0  0  0  0  0  0  0  0  0  0  0  0
   -2.2247   -1.4748    1.8544 C   0  0  0  0  0  0  0  0  0  0  0  0
   -4.2313    0.0585   -2.2143 O   0  0  0  0  0  0  0  0  0  0  0  0
   -0.6645   -2.3639   -3.2932 C   0  0  0  0  0  0  0  0  0  0  0  0
   -1.8648   -1.9910   -0.6941 C   0  0  0  0  0  0  0  0  0  0  0  0
   -2.4832   -1.3619    0.4782 C   0  0  0  0  0  0  0  0  0  0  0  0
    0.0266   -1.0286   -5.2818 C   0  0  0  0  0  0  0  0  0  0  0  0
   -0.8847   -2.7814   -0.6754 O   0  0  0  0  0  0  0  0  0  0  0  0
   -2.8406   -0.7581    3.8034 H   0  0  0  0  0  0  0  0  0  0  0  0
   -4.6010    0.7482    2.9314 H   0  0  0  0  0  0  0  0  0  0  0  0
   -5.0156    0.9156    0.4766 H   0  0  0  0  0  0  0  0  0  0  0  0
   -2.7103   -2.3073   -3.8555 H   0  0  0  0  0  0  0  0  0  0  0  0
   -2.9525    0.1441   -4.0025 H   0  0  0  0  0  0  0  0  0  0  0  0
   -1.3155    0.3984   -3.3055 H   0  0  0  0  0  0  0  0  0  0  0  0
   -1.9867   -0.9540   -5.9999 H   0  0  0  0  0  0  0  0  0  0  0  0
   -1.2206    0.6588   -5.7472 H   0  0  0  0  0  0  0  0  0  0  0  0
    1.2318   -2.5066   -4.2934 H   0  0  0  0  0  0  0  0  0  0  0  0
   -1.0367   -2.3986    3.3988 H   0  0  0  0  0  0  0  0  0  0  0  0
   -0.6274   -2.9422    1.7489 H   0  0  0  0  0  0  0  0  0  0  0  0
  1  2  4  0
  2  3  4  0
  3  4  4  0
  4  5  1  0
  5  9  1  0
  6  9  1  0
  6 10  1  0
 10 11  1  0
  1 14  4  0
 13 14  1  0
  5 15  2  0
 12 16  1  0
  8 16  2  0
  6 16  1  0
  9 17  1  0
  4 18  4  0
 17 18  1  0
 14 18  4  0
  7 19  2  0
 12 19  1  0
 11 19  1  0
 17 20  2  0
  1 21  1  0
  2 22  1  0
  3 23  1  0
  6 24  1  1
 10 25  1  0
 10 26  1  0
 11 27  1  0
 11 28  1  0
 12 29  1  0
 13 30  1  0
 13 31  1  0
M  END
