6Z2C_Q5E_B_201
     RDKit          3D

 26 28  0  0  0  0  0  0  0  0999 V2000
  -25.0572    3.5531   19.1762 O   0  0  0  0  0  0  0  0  0  0  0  0
  -23.8498    3.3037   19.4424 C   0  0  0  0  0  0  0  0  0  0  0  0
  -22.9546    2.2754   18.8089 C   0  0  1  0  0  0  0  0  0  0  0  0
  -23.2406    2.2335   17.3339 C   0  0  1  0  0  0  0  0  0  0  0  0
  -21.8216    2.3436   16.7706 C   0  0  1  0  0  0  0  0  0  0  0  0
  -20.8356    0.9667   17.2566 Cl  0  0  0  0  0  0  0  0  0  0  0  0
  -21.8046    2.6427   15.0327 Cl  0  0  0  0  0  0  0  0  0  0  0  0
  -24.1631    0.9141   16.7671 Cl  0  0  0  0  0  0  0  0  0  0  0  0
  -23.7168    3.6071   16.9502 C   0  0  0  0  0  0  0  0  0  0  0  0
  -25.2471    4.0477   16.2127 Cl  0  0  0  0  0  0  0  0  0  0  0  0
  -22.7019    4.4127   17.3024 C   0  0  0  0  0  0  0  0  0  0  0  0
  -22.8618    6.1516   17.3881 Cl  0  0  0  0  0  0  0  0  0  0  0  0
  -21.4880    3.5931   17.5883 C   0  0  2  0  0  0  0  0  0  0  0  0
  -19.9841    4.3464   17.2111 Cl  0  0  0  0  0  0  0  0  0  0  0  0
  -21.5891    2.9515   18.9583 C   0  0  1  0  0  0  0  0  0  0  0  0
  -21.7400    3.9252   20.0600 C   0  0  0  0  0  0  0  0  0  0  0  0
  -20.7697    4.5599   20.5492 O   0  0  0  0  0  0  0  0  0  0  0  0
  -23.1188    4.0060   20.4445 N   0  0  0  0  0  0  0  0  0  0  0  0
  -23.6349    4.6808   21.6365 C   0  0  0  0  0  0  0  0  0  0  0  0
  -23.9149    3.7302   22.7494 C   0  0  0  0  0  0  0  0  0  0  0  0
  -24.3989    4.5086   23.9566 C   0  0  0  0  0  0  0  0  0  0  0  0
  -23.3522    4.6123   25.0223 C   0  0  0  0  0  0  0  0  0  0  0  0
  -23.7624    5.4319   26.2082 C   0  0  0  0  0  0  0  0  0  0  0  0
  -22.7003    5.6541   27.2029 C   0  0  0  0  0  0  0  0  0  0  0  0
  -22.4034    6.8522   27.8134 O   0  0  0  0  0  0  0  0  0  0  0  0
  -21.9987    4.6317   27.5181 O   0  0  0  0  0  0  0  0  0  0  0  0
  1  2  2  0
  3  2  1  1
  3  4  1  0
  4  5  1  0
  5  6  1  6
  5  7  1  0
  4  8  1  1
  4  9  1  0
  9 10  1  0
  9 11  2  0
 11 12  1  0
  5 13  1  0
 11 13  1  0
 13 14  1  6
 13 15  1  0
  3 15  1  0
 15 16  1  1
 16 17  2  0
 16 18  1  0
  2 18  1  0
 18 19  1  0
 19 20  1  0
 20 21  1  0
 21 22  1  0
 22 23  1  0
 23 24  1  0
 24 25  1  0
 24 26  2  0
M  END
$$$$
