7QHL_D5P_C_301
     RDKit          3D

 54 58  0  0  0  0  0  0  0  0999 V2000
    3.4998  -17.8844   -9.8049 N   0  0  0  0  0  0  0  0  0  0  0  0
   -0.5523  -13.7706  -11.0128 N   0  0  0  0  0  0  0  0  0  0  0  0
   -0.6171  -14.9347  -10.1842 C   0  0  0  0  0  0  0  0  0  0  0  0
   -0.7679  -12.4478  -10.4278 C   0  0  0  0  0  0  0  0  0  0  0  0
   -0.8903  -12.5702   -8.9322 C   0  0  0  0  0  0  0  0  0  0  0  0
   -0.6284  -13.7949   -8.3024 C   0  0  0  0  0  0  0  0  0  0  0  0
   -0.8732  -13.9526   -6.9359 C   0  0  0  0  0  0  0  0  0  0  0  0
   -0.7996  -13.1871   -3.7635 C   0  0  0  0  0  0  0  0  0  0  0  0
   -1.6573  -11.6626   -6.8140 C   0  0  0  0  0  0  0  0  0  0  0  0
   -1.0793  -14.8863   -8.8726 C   0  0  0  0  0  0  0  0  0  0  0  0
   -2.0882  -16.5650   -5.7963 C   0  0  2  0  0  0  0  0  0  0  0  0
   -1.6858  -16.0093   -4.4352 C   0  0  0  0  0  0  0  0  0  0  0  0
   -1.2685  -16.0322   -8.1784 C   0  0  0  0  0  0  0  0  0  0  0  0
    2.2041  -17.8035  -10.4748 C   0  0  0  0  0  0  0  0  0  0  0  0
    1.3942  -19.0831  -10.2472 C   0  0  0  0  0  0  0  0  0  0  0  0
   -0.3514  -18.9065  -10.7819 S   0  0  0  0  0  0  0  0  0  0  0  0
   -0.5852  -17.3149   -9.9979 C   0  0  0  0  0  0  0  0  0  0  0  0
   -0.3725  -16.1673  -10.7177 N   0  0  0  0  0  0  0  0  0  0  0  0
   -1.4050  -12.8903   -6.1761 C   0  0  0  0  0  0  0  0  0  0  0  0
   -1.6881  -13.0391   -4.7695 N   0  0  0  0  0  4  0  0  0  0  0  0
   -1.4931  -13.3072   -2.5813 C   0  0  0  0  0  0  0  0  0  0  0  0
   -2.8219  -13.2230   -2.9423 C   0  0  0  0  0  0  0  0  0  0  0  0
   -2.9163  -13.0625   -4.2736 N   0  0  0  0  0  0  0  0  0  0  0  0
   -1.4141  -11.5073   -8.1803 C   0  0  0  0  0  0  0  0  0  0  0  0
   -1.4001  -13.8367   -8.0971 N   0  0  0  0  0  4  0  0  0  0  0  0
   -1.7973  -14.2984   -6.9131 N   0  0  0  0  0  0  0  0  0  0  0  0
   -1.7338  -15.6552   -6.9410 C   0  0  0  0  0  0  0  0  0  0  0  0
   -3.5567  -16.4923   -5.3904 C   0  0  0  0  0  0  0  0  0  0  0  0
   -3.1513  -15.9339   -4.0358 C   0  0  0  0  0  0  0  0  0  0  0  0
   -1.0409  -17.2538   -8.7093 N   0  0  0  0  0  0  0  0  0  0  0  0
    3.3440  -17.7998   -8.7754 H   0  0  0  0  0  0  0  0  0  0  0  0
    4.0614  -17.0474  -10.0868 H   0  0  0  0  0  0  0  0  0  0  0  0
   -0.8125  -13.8877  -12.0191 H   0  0  0  0  0  0  0  0  0  0  0  0
   -1.6950  -12.0030  -10.8507 H   0  0  0  0  0  0  0  0  0  0  0  0
    0.0687  -11.7684  -10.6937 H   0  0  0  0  0  0  0  0  0  0  0  0
   -0.2489  -14.6361   -8.8731 H   0  0  0  0  0  0  0  0  0  0  0  0
   -0.6496  -14.9099   -6.4859 H   0  0  0  0  0  0  0  0  0  0  0  0
    0.2749  -13.2194   -3.8641 H   0  0  0  0  0  0  0  0  0  0  0  0
   -2.0691  -10.8265   -6.2619 H   0  0  0  0  0  0  0  0  0  0  0  0
   -1.7437  -17.6121   -5.9445 H   0  0  0  0  0  0  0  0  0  0  0  0
   -1.2054  -15.0081   -4.4733 H   0  0  0  0  0  0  0  0  0  0  0  0
   -1.1204  -16.7500   -3.8277 H   0  0  0  0  0  0  0  0  0  0  0  0
    1.6324  -16.9318  -10.0816 H   0  0  0  0  0  0  0  0  0  0  0  0
    2.3551  -17.6382  -11.5612 H   0  0  0  0  0  0  0  0  0  0  0  0
    1.8543  -19.9135  -10.8215 H   0  0  0  0  0  0  0  0  0  0  0  0
    1.4294  -19.3617   -9.1714 H   0  0  0  0  0  0  0  0  0  0  0  0
   -1.0869  -13.4394   -1.5893 H   0  0  0  0  0  0  0  0  0  0  0  0
   -3.6699  -13.2755   -2.2753 H   0  0  0  0  0  0  0  0  0  0  0  0
   -1.6575  -10.5652   -8.6596 H   0  0  0  0  0  0  0  0  0  0  0  0
   -1.3394  -12.8246   -8.3470 H   0  0  0  0  0  0  0  0  0  0  0  0
   -4.0184  -17.4978   -5.3065 H   0  0  0  0  0  0  0  0  0  0  0  0
   -4.1672  -15.7717   -5.9802 H   0  0  0  0  0  0  0  0  0  0  0  0
   -3.4975  -14.8880   -3.8880 H   0  0  0  0  0  0  0  0  0  0  0  0
   -3.3990  -16.6184   -3.1974 H   0  0  0  0  0  0  0  0  0  0  0  0
  2  3  1  0
  2  4  1  0
  4  5  1  0
  5  6  4  0
  6  7  4  0
  3 10  4  0
 11 12  1  0
 10 13  4  0
  1 14  1  0
 14 15  1  0
 15 16  1  0
 16 17  1  0
 17 18  4  0
  3 18  4  0
  7 19  4  0
  9 19  4  0
 19 20  1  0
  8 20  4  0
  8 21  4  0
 21 22  4  0
 20 23  4  0
 22 23  4  0
  5 24  4  0
  9 24  4  0
 10 25  4  0
 25 26  4  0
 11 27  1  0
 26 27  4  0
 13 27  4  0
 11 28  1  0
 12 29  1  0
 28 29  1  0
 13 30  4  0
 17 30  4  0
  1 31  1  0
  1 32  1  0
  2 33  1  0
  4 34  1  0
  4 35  1  0
  6 36  1  0
  7 37  1  0
  8 38  1  0
  9 39  1  0
 11 40  1  6
 12 41  1  0
 12 42  1  0
 14 43  1  0
 14 44  1  0
 15 45  1  0
 15 46  1  0
 21 47  1  0
 22 48  1  0
 24 49  1  0
 25 50  1  0
 28 51  1  0
 28 52  1  0
 29 53  1  0
 29 54  1  0
M  CHG  2  20   1  25   1
M  END
