1TT1_KAI_A_998
     RDKit          3D

 15 15  0  0  0  0  0  0  0  0999 V2000
   -2.3530   38.2386   -4.3752 N   0  0  0  0  0  0  0  0  0  0  0  0
   -2.9735   37.6974   -3.1813 C   0  0  0  0  0  0  0  0  0  0  0  0
   -5.6138   37.9428   -1.4817 C   0  0  0  0  0  0  0  0  0  0  0  0
   -6.0831   35.9630   -2.8028 C   0  0  0  0  0  0  0  0  0  0  0  0
   -3.1742   37.8383   -5.5178 C   0  0  1  0  0  0  0  0  0  0  0  0
   -4.3465   37.0702   -4.9354 C   0  0  1  0  0  0  0  0  0  0  0  0
   -3.9906   35.6340   -4.9983 C   0  0  0  0  0  0  0  0  0  0  0  0
   -4.4186   37.7163   -3.6101 C   0  0  1  0  0  0  0  0  0  0  0  0
   -4.7644   34.9660   -6.0641 C   0  0  0  0  0  0  0  0  0  0  0  0
   -5.3580   37.2457   -2.6150 C   0  0  0  0  0  0  0  0  0  0  0  0
   -3.6957   39.0329   -6.2306 C   0  0  0  0  0  0  0  0  0  0  0  0
   -4.5420   38.8540   -7.1339 O   0  0  0  0  0  0  0  0  0  0  0  0
   -4.6909   33.5712   -6.1328 O   0  0  0  0  0  0  0  0  0  0  0  0
   -5.4809   35.5302   -6.9128 O   0  0  0  0  0  0  0  0  0  0  0  0
   -3.3065   40.3269   -5.9606 O   0  0  0  0  0  0  0  0  0  0  0  0
  1  2  1  0
  1  5  1  0
  5  6  1  0
  6  7  1  1
  2  8  1  0
  6  8  1  0
  7  9  1  0
  3 10  2  0
  4 10  1  0
  8 10  1  1
  5 11  1  1
 11 12  2  0
  9 13  1  0
  9 14  2  0
 11 15  1  0
M  END
$$$$
