1TT1_KAI_A_998
     RDKit          3D

 15 15  0  0  0  0  0  0  0  0999 V2000
    9.3108    7.6924   11.5544 N   0  0  0  0  0  0  0  0  0  0  0  0
    9.9230    7.0522   10.4060 C   0  0  0  0  0  0  0  0  0  0  0  0
   13.4916    7.5011    9.4263 C   0  0  0  0  0  0  0  0  0  0  0  0
   11.6124    6.7973    8.0630 C   0  0  0  0  0  0  0  0  0  0  0  0
   10.3831    8.0458   12.4846 C   0  0  1  0  0  0  0  0  0  0  0  0
   11.6741    7.6261   11.8058 C   0  0  1  0  0  0  0  0  0  0  0  0
   12.0067    6.2763   12.3164 C   0  0  0  0  0  0  0  0  0  0  0  0
   11.2550    7.7580   10.3966 C   0  0  1  0  0  0  0  0  0  0  0  0
   12.4553    6.3616   13.7208 C   0  0  0  0  0  0  0  0  0  0  0  0
   12.1471    7.3665    9.3265 C   0  0  0  0  0  0  0  0  0  0  0  0
   10.4187    9.5141   12.7074 C   0  0  0  0  0  0  0  0  0  0  0  0
   11.4705   10.0127   13.1650 O   0  0  0  0  0  0  0  0  0  0  0  0
   12.0033    5.3728   14.6003 O   0  0  0  0  0  0  0  0  0  0  0  0
   13.2028    7.2358   14.1995 O   0  0  0  0  0  0  0  0  0  0  0  0
    9.3665   10.3633   12.4425 O   0  0  0  0  0  0  0  0  0  0  0  0
  1  2  1  0
  1  5  1  0
  5  6  1  0
  6  7  1  1
  2  8  1  0
  6  8  1  0
  7  9  1  0
  3 10  2  0
  4 10  1  0
  8 10  1  6
  5 11  1  6
 11 12  2  0
  9 13  1  0
  9 14  2  0
 11 15  1  0
M  END
$$$$
