1TT1_KAI_A_998
     RDKit          3D

 15 15  0  0  0  0  0  0  0  0999 V2000
   -5.4501    7.1817   11.6219 N   0  0  0  0  0  0  0  0  0  0  0  0
   -6.7216    6.9153   10.9772 C   0  0  0  0  0  0  0  0  0  0  0  0
   -8.8262    9.5566    9.3907 C   0  0  0  0  0  0  0  0  0  0  0  0
   -8.8877    7.1523    9.0729 C   0  0  0  0  0  0  0  0  0  0  0  0
   -4.7467    8.1773   10.8130 C   0  0  1  0  0  0  0  0  0  0  0  0
   -5.6898    8.5275    9.6766 C   0  0  1  0  0  0  0  0  0  0  0  0
   -5.3068    7.6779    8.5255 C   0  0  0  0  0  0  0  0  0  0  0  0
   -6.9779    8.2602   10.3462 C   0  0  1  0  0  0  0  0  0  0  0  0
   -4.3554    8.3997    7.6569 C   0  0  0  0  0  0  0  0  0  0  0  0
   -8.2211    8.3649    9.6130 C   0  0  0  0  0  0  0  0  0  0  0  0
   -4.4834    9.4046   11.6076 C   0  0  0  0  0  0  0  0  0  0  0  0
   -5.4015    9.8394   12.3371 O   0  0  0  0  0  0  0  0  0  0  0  0
   -3.9896    7.7848    6.4553 O   0  0  0  0  0  0  0  0  0  0  0  0
   -3.8445    9.5109    7.8939 O   0  0  0  0  0  0  0  0  0  0  0  0
   -3.2915   10.0958   11.5927 O   0  0  0  0  0  0  0  0  0  0  0  0
  1  2  1  0
  1  5  1  0
  5  6  1  0
  6  7  1  6
  2  8  1  0
  6  8  1  0
  7  9  1  0
  3 10  2  0
  4 10  1  0
  8 10  1  6
  5 11  1  1
 11 12  2  0
  9 13  1  0
  9 14  2  0
 11 15  1  0
M  END
$$$$
