1TT1_KAI_A_998
     RDKit          3D

 15 15  0  0  0  0  0  0  0  0999 V2000
   12.1609   10.4315   15.5557 N   0  0  0  0  0  0  0  0  0  0  0  0
   12.6047   11.1595   14.3825 C   0  0  0  0  0  0  0  0  0  0  0  0
   14.4340   12.6704   12.7823 C   0  0  0  0  0  0  0  0  0  0  0  0
   16.2261   11.0679   13.1075 C   0  0  0  0  0  0  0  0  0  0  0  0
   13.1138    9.3456   15.7862 C   0  0  1  0  0  0  0  0  0  0  0  0
   14.1786    9.4959   14.7151 C   0  0  1  0  0  0  0  0  0  0  0  0
   13.7956    8.5970   13.6021 C   0  0  0  0  0  0  0  0  0  0  0  0
   14.0936   10.9536   14.4988 C   0  0  1  0  0  0  0  0  0  0  0  0
   14.2625    7.2230   13.8763 C   0  0  0  0  0  0  0  0  0  0  0  0
   14.8815   11.5886   13.4643 C   0  0  0  0  0  0  0  0  0  0  0  0
   13.7560    9.4880   17.1182 C   0  0  0  0  0  0  0  0  0  0  0  0
   13.5075   10.5184   17.7822 O   0  0  0  0  0  0  0  0  0  0  0  0
   13.2884    6.2281   14.0069 O   0  0  0  0  0  0  0  0  0  0  0  0
   15.4486    6.8637   14.0030 O   0  0  0  0  0  0  0  0  0  0  0  0
   14.6090    8.5572   17.6701 O   0  0  0  0  0  0  0  0  0  0  0  0
  1  2  1  0
  1  5  1  0
  5  6  1  0
  6  7  1  6
  2  8  1  0
  6  8  1  0
  7  9  1  0
  3 10  2  0
  4 10  1  0
  8 10  1  6
  5 11  1  1
 11 12  2  0
  9 13  1  0
  9 14  2  0
 11 15  1  0
M  END
$$$$
