1TT1_KAI_A_998
     RDKit          3D

 15 15  0  0  0  0  0  0  0  0999 V2000
   16.4736   21.3328   13.3023 N   0  0  0  0  0  0  0  0  0  0  0  0
   16.9927   21.7114   12.0020 C   0  0  0  0  0  0  0  0  0  0  0  0
   18.8482   24.7263   11.2104 C   0  0  0  0  0  0  0  0  0  0  0  0
   17.1510   23.7645    9.7682 C   0  0  0  0  0  0  0  0  0  0  0  0
   17.1141   22.1915   14.2986 C   0  0  1  0  0  0  0  0  0  0  0  0
   18.0070   23.1372   13.5165 C   0  0  1  0  0  0  0  0  0  0  0  0
   19.3630   22.5416   13.5141 C   0  0  0  0  0  0  0  0  0  0  0  0
   17.2568   23.1754   12.2458 C   0  0  1  0  0  0  0  0  0  0  0  0
   20.1379   23.0400   14.6682 C   0  0  0  0  0  0  0  0  0  0  0  0
   17.7790   23.9005   11.1074 C   0  0  0  0  0  0  0  0  0  0  0  0
   16.0980   22.9921   15.0291 C   0  0  0  0  0  0  0  0  0  0  0  0
   15.4408   23.8368   14.3820 O   0  0  0  0  0  0  0  0  0  0  0  0
   20.6785   22.0876   15.5379 O   0  0  0  0  0  0  0  0  0  0  0  0
   20.3573   24.2353   14.9423 O   0  0  0  0  0  0  0  0  0  0  0  0
   15.8326   22.8641   16.3751 O   0  0  0  0  0  0  0  0  0  0  0  0
  1  2  1  0
  1  5  1  0
  5  6  1  0
  6  7  1  6
  2  8  1  0
  6  8  1  0
  7  9  1  0
  3 10  2  0
  4 10  1  0
  8 10  1  6
  5 11  1  6
 11 12  2  0
  9 13  1  0
  9 14  2  0
 11 15  1  0
M  END
$$$$
