1TT1_KAI_A_998
     RDKit          3D

 15 15  0  0  0  0  0  0  0  0999 V2000
   13.9691    5.8863   21.0177 N   0  0  0  0  0  0  0  0  0  0  0  0
   13.2492    4.7510   20.4734 C   0  0  0  0  0  0  0  0  0  0  0  0
   12.5435    2.8084   18.4721 C   0  0  0  0  0  0  0  0  0  0  0  0
   12.1711    4.5324   16.8064 C   0  0  0  0  0  0  0  0  0  0  0  0
   14.9826    6.2757   20.0373 C   0  0  1  0  0  0  0  0  0  0  0  0
   14.7952    5.3416   18.8558 C   0  0  1  0  0  0  0  0  0  0  0  0
   15.7504    4.2245   19.0379 C   0  0  0  0  0  0  0  0  0  0  0  0
   13.3533    5.0608   19.0018 C   0  0  1  0  0  0  0  0  0  0  0  0
   16.8420    4.3243   18.0483 C   0  0  0  0  0  0  0  0  0  0  0  0
   12.6995    4.1098   18.1288 C   0  0  0  0  0  0  0  0  0  0  0  0
   14.7584    7.6713   19.5802 C   0  0  0  0  0  0  0  0  0  0  0  0
   15.5927    8.1725   18.7946 O   0  0  0  0  0  0  0  0  0  0  0  0
   17.5195    3.1461   17.7189 O   0  0  0  0  0  0  0  0  0  0  0  0
   17.2190    5.3644   17.4755 O   0  0  0  0  0  0  0  0  0  0  0  0
   13.6895    8.4503   19.9663 O   0  0  0  0  0  0  0  0  0  0  0  0
  1  2  1  0
  1  5  1  0
  5  6  1  0
  6  7  1  1
  2  8  1  0
  6  8  1  0
  7  9  1  0
  3 10  2  0
  4 10  1  0
  8 10  1  6
  5 11  1  6
 11 12  2  0
  9 13  1  0
  9 14  2  0
 11 15  1  0
M  END
$$$$
