7P2W_4QR_A_301
     RDKit          3D

 34 37  0  0  0  0  0  0  0  0999 V2000
  -28.4085    7.4256   -1.6263 N   0  0  0  0  0  0  0  0  0  0  0  0
  -23.8591    3.8397    0.2757 N   0  0  0  0  0  0  0  0  0  0  0  0
  -30.5862    8.6421   -1.7058 C   0  0  0  0  0  0  0  0  0  0  0  0
  -29.5544    7.8577   -1.1368 C   0  0  0  0  0  0  0  0  0  0  0  0
  -29.7639    7.4614    0.1663 C   0  0  0  0  0  0  0  0  0  0  0  0
  -27.5625    6.7947   -1.1913 C   0  0  0  0  0  0  0  0  0  0  0  0
  -33.0349    8.8527    1.1594 C   0  0  0  0  0  0  0  0  0  0  0  0
  -30.4552    9.9201   -5.2449 C   0  0  0  0  0  0  0  0  0  0  0  0
  -29.3447   10.0523   -7.8313 C   0  0  0  0  0  0  0  0  0  0  0  0
  -29.5801   10.9513   -5.6046 C   0  0  0  0  0  0  0  0  0  0  0  0
  -25.7546    5.3790   -0.4165 C   0  0  0  0  0  0  0  0  0  0  0  0
  -22.7239    3.7441   -1.6155 C   0  0  0  0  0  0  0  0  0  0  0  0
  -22.7722    3.3108   -0.3142 C   0  0  0  0  0  0  0  0  0  0  0  0
  -21.8031    2.4088    0.3605 C   0  0  0  0  0  0  0  0  0  0  0  0
  -30.8526    7.7488    0.9457 C   0  0  0  0  0  0  0  0  0  0  0  0
  -31.8506    8.5124    0.3826 C   0  0  0  0  0  0  0  0  0  0  0  0
  -31.6703    8.9226   -0.9160 C   0  0  0  0  0  0  0  0  0  0  0  0
  -28.2528    6.4774    0.5787 S   0  0  0  0  0  0  0  0  0  0  0  0
  -33.1649    8.3872    2.4595 O   0  0  0  0  0  0  0  0  0  0  0  0
  -33.9437    9.5554    0.6892 O   0  0  0  0  0  0  0  0  0  0  0  0
  -30.4200    9.0477   -2.9749 O   0  0  0  0  0  0  0  0  0  0  0  0
  -30.9750    9.9098   -3.8623 C   0  0  0  0  0  0  0  0  0  0  0  0
  -30.7310    8.9967   -6.2140 C   0  0  0  0  0  0  0  0  0  0  0  0
  -30.2049    9.0320   -7.4893 C   0  0  0  0  0  0  0  0  0  0  0  0
  -29.0403   11.0066   -6.8781 C   0  0  0  0  0  0  0  0  0  0  0  0
  -28.1234   12.0995   -7.2321 C   0  0  0  0  0  0  0  0  0  0  0  0
  -27.8011   12.3309   -8.4330 O   0  0  0  0  0  0  0  0  0  0  0  0
  -27.5864   12.9063   -6.2650 O   0  0  0  0  0  0  0  0  0  0  0  0
  -26.2574    6.1910   -1.4637 N   0  0  0  0  0  0  0  0  0  0  0  0
  -24.5422    4.6125   -0.5824 C   0  0  0  0  0  0  0  0  0  0  0  0
  -23.8356    4.5569   -1.7703 C   0  0  0  0  0  0  0  0  0  0  0  0
  -26.4361    5.3736    0.6620 O   0  0  0  0  0  0  0  0  0  0  0  0
  -24.2328    5.3658   -3.2727 Cl  0  0  0  0  0  0  0  0  0  0  0  0
  -21.5199    3.3617   -2.8372 Cl  0  0  0  0  0  0  0  0  0  0  0  0
  3  4  2  0
  1  4  1  0
  4  5  1  0
  1  6  2  0
  8 10  1  0
 12 13  2  0
  2 13  1  0
 14 13  1  6
  5 15  2  0
 15 16  1  0
  7 16  1  0
  3 17  1  0
 16 17  2  0
  6 18  1  0
  5 18  1  0
  7 19  1  0
  7 20  2  0
  3 21  1  0
  8 22  1  0
 22 21  1  1
  8 23  2  0
  9 24  2  0
 23 24  1  0
  9 25  1  0
 10 25  2  0
 25 26  1  0
 26 27  2  0
 26 28  1  0
  6 29  1  0
 11 29  1  0
 11 30  1  0
  2 30  1  0
 12 31  1  0
 30 31  2  0
 11 32  2  0
 31 33  1  0
 12 34  1  0
M  END
$$$$
