7N4W_P4V_A_203
     RDKit          3D

 51 54  0  0  0  0  0  0  0  0999 V2000
   -6.9172  -10.2632   10.4715 C   0  0  0  0  0  0  0  0  0  0  0  0
   -9.2627  -10.8037   10.1130 C   0  0  0  0  0  0  0  0  0  0  0  0
   -5.8625   -8.5290    9.2996 O   0  0  0  0  0  0  0  0  0  0  0  0
   -8.2949  -14.2732   16.9666 C   0  0  0  0  0  0  0  0  0  0  0  0
   -7.8535  -15.3352   16.1600 O   0  0  0  0  0  0  0  0  0  0  0  0
   -7.0716  -14.9830   15.0632 C   0  0  0  0  0  0  0  0  0  0  0  0
   -7.2941  -13.7777   14.4481 C   0  0  0  0  0  0  0  0  0  0  0  0
   -6.2887  -16.0119   14.5410 C   0  0  0  0  0  0  0  0  0  0  0  0
   -6.1743  -17.2046   15.2231 O   0  0  0  0  0  0  0  0  0  0  0  0
   -6.9499  -17.3987   16.4219 C   0  0  0  0  0  0  0  0  0  0  0  0
   -5.5486  -15.7752   13.3157 C   0  0  0  0  0  0  0  0  0  0  0  0
   -5.7280  -14.5462   12.7550 C   0  0  0  0  0  0  0  0  0  0  0  0
   -4.9166  -14.2773   11.4805 C   0  0  0  0  0  0  0  0  0  0  0  0
   -5.3013  -12.9596   10.7641 C   0  0  0  0  0  0  0  0  0  0  0  0
   -5.4633  -11.8268   11.7908 N   0  0  0  0  0  0  0  0  0  0  0  0
   -5.6673  -10.4594   11.3044 C   0  0  0  0  0  0  0  0  0  0  0  0
   -6.6894  -12.2450   12.4883 C   0  0  2  0  0  0  0  0  0  0  0  0
   -6.5281  -13.4873   13.2468 C   0  0  0  0  0  0  0  0  0  0  0  0
   -8.0551  -12.0959   11.8888 C   0  0  0  0  0  0  0  0  0  0  0  0
   -8.0744  -11.0200   10.8379 C   0  0  0  0  0  0  0  0  0  0  0  0
   -9.3445   -9.8578    9.1100 C   0  0  0  0  0  0  0  0  0  0  0  0
   -8.1989   -9.0879    8.8062 C   0  0  0  0  0  0  0  0  0  0  0  0
   -8.1778   -8.1240    7.7829 O   0  0  0  0  0  0  0  0  0  0  0  0
   -8.6594   -8.4635    6.4353 C   0  0  0  0  0  0  0  0  0  0  0  0
   -6.9935   -9.2894    9.5641 C   0  0  0  0  0  0  0  0  0  0  0  0
   -5.2448   -7.8190   10.3619 C   0  0  0  0  0  0  0  0  0  0  0  0
  -10.0966  -11.3684   10.3381 H   0  0  0  0  0  0  0  0  0  0  0  0
   -8.8828  -14.6585   17.7734 H   0  0  0  0  0  0  0  0  0  0  0  0
   -7.4493  -13.7489   17.3603 H   0  0  0  0  0  0  0  0  0  0  0  0
   -8.8889  -13.6033   16.3806 H   0  0  0  0  0  0  0  0  0  0  0  0
   -7.9788  -13.1029   14.8234 H   0  0  0  0  0  0  0  0  0  0  0  0
   -6.7464  -18.3686   16.8253 H   0  0  0  0  0  0  0  0  0  0  0  0
   -6.6879  -16.6511   17.1412 H   0  0  0  0  0  0  0  0  0  0  0  0
   -7.9914  -17.3204   16.1894 H   0  0  0  0  0  0  0  0  0  0  0  0
   -4.9298  -16.4876   12.8981 H   0  0  0  0  0  0  0  0  0  0  0  0
   -3.8806  -14.2288   11.7435 H   0  0  0  0  0  0  0  0  0  0  0  0
   -5.1282  -15.0761   10.8007 H   0  0  0  0  0  0  0  0  0  0  0  0
   -4.5324  -12.6983   10.0674 H   0  0  0  0  0  0  0  0  0  0  0  0
   -6.2283  -13.0996   10.2483 H   0  0  0  0  0  0  0  0  0  0  0  0
   -5.7265   -9.8095   12.1523 H   0  0  0  0  0  0  0  0  0  0  0  0
   -4.8395  -10.2404   10.6628 H   0  0  0  0  0  0  0  0  0  0  0  0
   -6.7484  -11.3971   13.1381 H   0  0  0  0  0  0  0  0  0  0  0  0
   -8.3434  -13.0246   11.4425 H   0  0  0  0  0  0  0  0  0  0  0  0
   -8.7377  -11.8221   12.6660 H   0  0  0  0  0  0  0  0  0  0  0  0
  -10.2256   -9.7159    8.5920 H   0  0  0  0  0  0  0  0  0  0  0  0
   -8.5661   -7.6094    5.7974 H   0  0  0  0  0  0  0  0  0  0  0  0
   -8.0761   -9.2689    6.0404 H   0  0  0  0  0  0  0  0  0  0  0  0
   -9.6865   -8.7591    6.4875 H   0  0  0  0  0  0  0  0  0  0  0  0
   -4.3934   -7.2890    9.9890 H   0  0  0  0  0  0  0  0  0  0  0  0
   -5.9428   -7.1239   10.7795 H   0  0  0  0  0  0  0  0  0  0  0  0
   -4.9326   -8.5088   11.1179 H   0  0  0  0  0  0  0  0  0  0  0  0
  4  5  1  0
  5  6  1  0
  6  7  4  0
  6  8  4  0
  8  9  1  0
  9 10  1  0
  8 11  4  0
 11 12  4  0
 12 13  1  0
 13 14  1  0
 14 15  1  0
 15 16  1  0
  1 16  1  0
 15 17  1  0
  7 18  4  0
 12 18  4  0
 17 18  1  0
 17 19  1  0
 19 20  1  0
  2 20  4  0
  1 20  4  0
  2 21  4  0
 21 22  4  0
 22 23  1  0
 23 24  1  0
  1 25  4  0
 22 25  4  0
  3 25  1  0
  3 26  1  0
  2 27  1  0
  4 28  1  0
  4 29  1  0
  4 30  1  0
  7 31  1  0
 10 32  1  0
 10 33  1  0
 10 34  1  0
 11 35  1  0
 13 36  1  0
 13 37  1  0
 14 38  1  0
 14 39  1  0
 16 40  1  0
 16 41  1  0
 17 42  1  6
 19 43  1  0
 19 44  1  0
 21 45  1  0
 24 46  1  0
 24 47  1  0
 24 48  1  0
 26 49  1  0
 26 50  1  0
 26 51  1  0
M  END
