7LZD_YHY_A_1805
     RDKit          3D

 29 32  0  0  0  0  0  0  0  0999 V2000
    0.4012   22.9974    5.7209 C   0  0  0  0  0  0  0  0  0  0  0  0
    1.7256   23.6812    5.7051 N   0  0  0  0  0  0  0  0  0  0  0  0
    1.5709   25.0607    5.1661 C   0  0  0  0  0  0  0  0  0  0  0  0
    2.4577   23.6196    7.0153 C   0  0  2  0  0  0  0  0  0  0  0  0
    1.4886   23.3891    8.1803 C   0  0  0  0  0  0  0  0  0  0  0  0
    2.1668   23.5064    9.5466 C   0  0  0  0  0  0  0  0  0  0  0  0
    4.0015   24.8618    8.5862 C   0  0  0  0  0  0  0  0  0  0  0  0
    3.1180   24.6189    9.7461 N   0  0  0  0  0  0  0  0  0  0  0  0
    3.1768   24.9446    7.2987 C   0  0  0  0  0  0  0  0  0  0  0  0
    3.7054   24.6730   11.0499 C   0  0  0  0  0  0  0  0  0  0  0  0
    3.0226   24.1353   12.1685 C   0  0  0  0  0  0  0  0  0  0  0  0
    3.5367   24.1947   13.4616 C   0  0  0  0  0  0  0  0  0  0  0  0
    4.7708   24.7920   13.6656 C   0  0  0  0  0  0  0  0  0  0  0  0
    5.4700   25.2915   12.5864 C   0  0  0  0  0  0  0  0  0  0  0  0
    4.9571   25.2483   11.3052 C   0  0  0  0  0  0  0  0  0  0  0  0
    2.7413   23.6662   14.4810 N   0  0  0  0  0  0  0  0  0  0  0  0
    1.4189   23.8925   14.6021 C   0  0  0  0  0  0  0  0  0  0  0  0
    0.9263   24.4727   15.5788 O   0  0  0  0  0  0  0  0  0  0  0  0
    0.5251   23.4483   13.5370 C   0  0  0  0  0  0  0  0  0  0  0  0
    0.4695   23.8389   12.2347 C   0  0  0  0  0  0  0  0  0  0  0  0
   -0.5647   23.0973   11.6206 C   0  0  0  0  0  0  0  0  0  0  0  0
   -1.1124   22.2564   12.6102 C   0  0  0  0  0  0  0  0  0  0  0  0
   -2.1587   21.3815   12.3208 C   0  0  0  0  0  0  0  0  0  0  0  0
   -2.6976   20.5148   13.4441 C   0  0  0  0  0  0  0  0  0  0  0  0
   -2.6806   21.3560   11.0595 C   0  0  0  0  0  0  0  0  0  0  0  0
   -2.1388   22.1962   10.0668 C   0  0  0  0  0  0  0  0  0  0  0  0
   -1.0984   23.0650   10.3334 C   0  0  0  0  0  0  0  0  0  0  0  0
   -0.5811   23.8815    9.3601 F   0  0  0  0  0  0  0  0  0  0  0  0
   -0.4208   22.4737   13.7617 N   0  0  0  0  0  0  0  0  0  0  0  0
  1  2  1  0
  2  3  1  0
  4  2  1  6
  4  5  1  0
  5  6  1  0
  7  8  1  0
  6  8  1  0
  7  9  1  0
  4  9  1  0
  8 10  1  0
 10 11  2  0
 11 12  1  0
 12 13  2  0
 13 14  1  0
 14 15  2  0
 10 15  1  0
 12 16  1  0
 16 17  1  0
 17 18  2  0
 17 19  1  0
 19 20  2  0
 20 21  1  0
 21 22  2  0
 22 23  1  0
 23 24  1  0
 23 25  2  0
 25 26  1  0
 21 27  1  0
 26 27  2  0
 27 28  1  0
 19 29  1  0
 22 29  1  0
M  END
