
     RDKit          3D

 13 12  0  0  0  0  0  0  0  0999 V2000
  -32.3517    7.6563   -6.8147 C   0  0  0  0  0  0  0  0  0  0  0  0
  -31.1286    7.8759   -7.7221 C   0  0  2  0  0  0  0  0  0  0  0  0
  -30.3059    9.1355   -7.4128 C   0  0  0  0  0  0  0  0  0  0  0  0
  -29.3273    9.0139   -6.2366 C   0  0  0  0  0  0  0  0  0  0  0  0
  -28.7204    7.6292   -5.9538 C   0  0  0  0  0  0  0  0  0  0  0  0
  -28.7021    7.1440   -4.4964 C   0  0  2  0  0  0  0  0  0  0  0  0
  -29.4432    5.8169   -4.2798 C   0  0  0  0  0  0  0  0  0  0  0  0
  -33.4569    7.2888   -7.1946 O   0  0  0  0  0  0  0  0  0  0  0  0
  -32.1353    7.8344   -5.4998 O   0  0  0  0  0  0  0  0  0  0  0  0
  -29.3222    5.0696   -3.3199 O   0  0  0  0  0  0  0  0  0  0  0  0
  -30.2146    5.4543   -5.3238 O   0  0  0  0  0  0  0  0  0  0  0  0
  -31.6077    7.9799   -9.1221 N   0  0  0  0  0  0  0  0  0  0  0  0
  -29.2246    8.1836   -3.5824 N   0  0  0  0  0  0  0  0  0  0  0  0
  1  2  1  0
  2  3  1  0
  3  4  1  0
  4  5  1  0
  5  6  1  0
  6  7  1  0
  1  8  2  0
  1  9  1  0
  7 10  2  0
  7 11  1  0
  2 12  1  6
  6 13  1  1
M  END
