1GM8_SOX_B_1559
     RDKit          3D

 24 26  0  0  0  0  0  0  0  0999 V2000
   16.8218   -4.6370   -1.3332 O   0  0  0  0  0  0  0  0  0  0  0  0
   16.9834   -4.8651   -0.1574 C   0  0  0  0  0  0  0  0  0  0  0  0
   16.6347   -4.1523    0.9953 N   0  0  0  0  0  0  0  0  0  0  0  0
   16.3575   -2.7630    1.2121 C   0  0  1  0  0  0  0  0  0  0  0  0
   14.8831   -2.4824    1.5373 C   0  0  0  0  0  0  0  0  0  0  0  0
   13.9689   -3.1802    1.2216 O   0  0  0  0  0  0  0  0  0  0  0  0
   14.7948   -1.3362    2.2713 O   0  0  0  0  0  0  0  0  0  0  0  0
   17.3310   -2.3868    2.3516 C   0  0  2  0  0  0  0  0  0  0  0  0
   16.7045   -2.4120    3.7725 C   0  0  0  0  0  0  0  0  0  0  0  0
   17.9522   -0.9850    2.1783 C   0  0  0  0  0  0  0  0  0  0  0  0
   18.6672   -3.6296    2.2347 S   0  0  1  0  0  0  0  0  0  0  0  0
   17.5163   -4.9621    1.8116 C   0  0  2  0  0  0  0  0  0  0  0  0
   17.7107   -5.9319    0.6310 C   0  0  2  0  0  0  0  0  0  0  0  0
   19.0283   -6.1859    0.1212 N   0  0  0  0  0  0  0  0  0  0  0  0
   19.5795   -7.4223    0.0689 C   0  0  0  0  0  0  0  0  0  0  0  0
   19.0851   -8.5203    0.3142 O   0  0  0  0  0  0  0  0  0  0  0  0
   21.0553   -7.4172   -0.3289 C   0  0  0  0  0  0  0  0  0  0  0  0
   21.8431   -8.3016    0.6300 C   0  0  0  0  0  0  0  0  0  0  0  0
   22.9647   -9.0122    0.2291 C   0  0  0  0  0  0  0  0  0  0  0  0
   23.7278   -9.7076    1.1725 C   0  0  0  0  0  0  0  0  0  0  0  0
   23.3097   -9.7587    2.5104 C   0  0  0  0  0  0  0  0  0  0  0  0
   22.1592   -9.0792    2.9242 C   0  0  0  0  0  0  0  0  0  0  0  0
   21.4585   -8.3396    1.9721 C   0  0  0  0  0  0  0  0  0  0  0  0
   19.4197   -3.5031    0.9645 O   0  0  0  0  0  0  0  0  0  0  0  0
  1  2  2  0
  2  3  1  0
  3  4  1  0
  4  5  1  1
  5  6  2  0
  5  7  1  0
  4  8  1  0
  8  9  1  1
  8 10  1  0
  8 11  1  0
 12  3  1  6
 11 12  1  0
  2 13  1  0
 12 13  1  0
 13 14  1  6
 14 15  1  0
 15 16  2  0
 15 17  1  0
 17 18  1  0
 18 19  2  0
 19 20  1  0
 20 21  2  0
 21 22  1  0
 18 23  1  0
 22 23  2  0
 11 24  1  6
M  END
