7SGV_L30_A_501
     RDKit          3D

 31 33  0  0  0  0  0  0  0  0999 V2000
    0.9652   71.8274   41.9406 O   0  0  0  0  0  0  0  0  0  0  0  0
    0.9606   71.5673   40.7210 C   0  0  0  0  0  0  0  0  0  0  0  0
    2.1658   72.0276   39.8760 C   0  0  0  0  0  0  0  0  0  0  0  0
    3.1420   71.1115   39.4436 C   0  0  0  0  0  0  0  0  0  0  0  0
    4.2041   71.5358   38.6532 C   0  0  0  0  0  0  0  0  0  0  0  0
    4.2568   72.8738   38.2717 C   0  0  0  0  0  0  0  0  0  0  0  0
    3.3247   73.7422   38.6901 N   0  0  0  0  0  0  0  0  0  0  0  0
    2.3076   73.3673   39.4750 C   0  0  0  0  0  0  0  0  0  0  0  0
    0.0129   70.8318   40.0305 N   0  0  0  0  0  0  0  0  0  0  0  0
   -0.4313   71.1115   38.7569 C   0  0  0  0  0  0  0  0  0  0  0  0
    0.3677   70.9072   37.6274 C   0  0  0  0  0  0  0  0  0  0  0  0
    0.0132   71.3888   36.3431 C   0  0  0  0  0  0  0  0  0  0  0  0
   -1.1640   72.1134   36.1224 C   0  0  0  0  0  0  0  0  0  0  0  0
   -2.0288   72.3670   37.1975 C   0  0  0  0  0  0  0  0  0  0  0  0
   -3.2253   73.0559   37.0106 C   0  0  0  0  0  0  0  0  0  0  0  0
   -4.0865   73.2706   38.0790 C   0  0  0  0  0  0  0  0  0  0  0  0
   -3.7763   72.8452   39.3796 C   0  0  0  0  0  0  0  0  0  0  0  0
   -2.5834   72.1481   39.6290 C   0  0  0  0  0  0  0  0  0  0  0  0
   -1.6956   71.8913   38.5656 C   0  0  0  0  0  0  0  0  0  0  0  0
    3.0692   70.1184   39.7147 H   0  0  0  0  0  0  0  0  0  0  0  0
    4.9375   70.8735   38.3559 H   0  0  0  0  0  0  0  0  0  0  0  0
    5.0214   73.2006   37.6605 H   0  0  0  0  0  0  0  0  0  0  0  0
    1.6199   74.0696   39.7893 H   0  0  0  0  0  0  0  0  0  0  0  0
   -0.3735   70.0484   40.4846 H   0  0  0  0  0  0  0  0  0  0  0  0
    1.2512   70.3845   37.7338 H   0  0  0  0  0  0  0  0  0  0  0  0
    0.6416   71.2000   35.5465 H   0  0  0  0  0  0  0  0  0  0  0  0
   -1.3938   72.4579   35.1772 H   0  0  0  0  0  0  0  0  0  0  0  0
   -3.4732   73.4086   36.0729 H   0  0  0  0  0  0  0  0  0  0  0  0
   -4.9809   73.7574   37.9113 H   0  0  0  0  0  0  0  0  0  0  0  0
   -4.4269   73.0453   40.1552 H   0  0  0  0  0  0  0  0  0  0  0  0
   -2.3587   71.8263   40.5834 H   0  0  0  0  0  0  0  0  0  0  0  0
  1  2  2  0
  2  3  1  0
  3  4  4  0
  4  5  4  0
  5  6  4  0
  6  7  4  0
  7  8  4  0
  3  8  4  0
  2  9  1  0
  9 10  1  0
 10 11  4  0
 11 12  4  0
 12 13  4  0
 13 14  4  0
 14 15  4  0
 15 16  4  0
 16 17  4  0
 17 18  4  0
 18 19  4  0
 14 19  4  0
 10 19  4  0
  4 20  1  0
  5 21  1  0
  6 22  1  0
  8 23  1  0
  9 24  1  0
 11 25  1  0
 12 26  1  0
 13 27  1  0
 15 28  1  0
 16 29  1  0
 17 30  1  0
 18 31  1  0
M  END
