
     RDKit          3D

 12 12  0  0  0  0  0  0  0  0999 V2000
   83.6446   77.6989   97.7407 C   0  0  0  0  0  0  0  0  0  0  0  0
   82.3096   77.0504   98.0863 C   0  0  0  0  0  0  0  0  0  0  0  0
   82.6258   75.6445   98.2896 N   0  0  0  0  0  0  0  0  0  0  0  0
   84.0620   75.4256   98.2890 C   0  0  0  0  0  0  0  0  0  0  0  0
   84.6543   76.8154   98.4604 C   0  0  0  0  0  0  0  0  0  0  0  0
   81.7537   74.5812   98.3543 C   0  0  0  0  0  0  0  0  0  0  0  0
   80.3610   74.7243   97.6811 C   0  0  2  0  0  0  0  0  0  0  0  0
   79.1913   74.7000   98.6968 C   0  0  0  0  0  0  0  0  0  0  0  0
   78.1436   73.6442   98.3338 C   0  0  0  0  0  0  0  0  0  0  0  0
   82.0668   73.5305   98.9244 O   0  0  0  0  0  0  0  0  0  0  0  0
   80.2123   73.6336   96.6858 N   0  0  0  0  0  0  0  0  0  0  0  0
   78.5010   76.0531   98.9044 C   0  0  0  0  0  0  0  0  0  0  0  0
  1  2  1  0
  2  3  1  0
  3  4  1  0
  1  5  1  0
  4  5  1  0
  3  6  1  0
  6  7  1  0
  7  8  1  0
  8  9  1  0
  6 10  2  0
  7 11  1  6
  8 12  1  0
M  END
