1OQ5_CEL_A_701
     RDKit          3D

 26 28  0  0  0  0  0  0  0  0999 V2000
   15.3668    2.6598   16.4319 S   0  0  2  0  0  0  0  0  0  0  0  0
   16.0156    4.1399   15.7633 C   0  0  0  0  0  0  0  0  0  0  0  0
   17.3848    4.3208   15.8186 C   0  0  0  0  0  0  0  0  0  0  0  0
   17.9195    5.4816   15.2969 C   0  0  0  0  0  0  0  0  0  0  0  0
   17.1047    6.4611   14.7222 C   0  0  0  0  0  0  0  0  0  0  0  0
   15.7406    6.2820   14.6665 C   0  0  0  0  0  0  0  0  0  0  0  0
   15.2033    5.1109   15.1930 C   0  0  0  0  0  0  0  0  0  0  0  0
   17.7727    7.6070   14.2221 N   0  0  0  0  0  0  0  0  0  0  0  0
   17.2458    8.7772   13.8201 C   0  0  0  0  0  0  0  0  0  0  0  0
   15.8290    9.1335   13.8108 C   0  0  0  0  0  0  0  0  0  0  0  0
   15.3106    9.4946   12.5613 C   0  0  0  0  0  0  0  0  0  0  0  0
   14.0003    9.8537   12.3929 C   0  0  0  0  0  0  0  0  0  0  0  0
   13.1732    9.8546   13.5059 C   0  0  0  0  0  0  0  0  0  0  0  0
   11.7510   10.2414   13.3393 C   0  0  0  0  0  0  0  0  0  0  0  0
   13.6963    9.4976   14.7272 C   0  0  0  0  0  0  0  0  0  0  0  0
   15.0239    9.1327   14.9036 C   0  0  0  0  0  0  0  0  0  0  0  0
   18.2590    9.6188   13.4058 C   0  0  0  0  0  0  0  0  0  0  0  0
   19.4301    8.9042   13.5748 C   0  0  0  0  0  0  0  0  0  0  0  0
   20.7985    9.4051   13.2593 C   0  0  2  0  0  0  0  0  0  0  0  0
   20.6842   10.1674   12.1056 F   0  0  0  0  0  0  0  0  0  0  0  0
   21.6492    8.3599   12.9335 F   0  0  0  0  0  0  0  0  0  0  0  0
   21.2979   10.1377   14.3071 F   0  0  0  0  0  0  0  0  0  0  0  0
   19.0791    7.7004   14.0686 N   0  0  0  0  0  0  0  0  0  0  0  0
   16.0584    1.3293   15.5668 N   0  0  0  0  0  0  0  0  0  0  0  0
   13.8672    2.6093   16.2642 O   0  0  0  0  0  0  0  0  0  0  0  0
   15.7695    2.5478   17.8620 O   0  0  0  0  0  0  0  0  0  0  0  0
  1  2  1  0
  2  3  2  0
  3  4  1  0
  4  5  2  0
  5  6  1  0
  2  7  1  0
  6  7  2  0
  5  8  1  0
  8  9  1  0
  9 10  1  0
 10 11  2  0
 11 12  1  0
 12 13  2  0
 13 14  1  0
 13 15  1  0
 10 16  1  0
 15 16  2  0
  9 17  2  0
 17 18  1  0
 18 19  1  0
 19 20  1  6
 19 21  1  0
 19 22  1  0
  8 23  1  0
 18 23  2  0
  1 24  1  6
  1 25  2  0
  1 26  2  0
M  END
$$$$
