1OQ5_CEL_A_701
     RDKit          3D

 26 28  0  0  0  0  0  0  0  0999 V2000
   15.2740    2.6628   16.6526 S   0  0  2  0  0  0  0  0  0  0  0  0
   16.0969    4.0026   15.8867 C   0  0  0  0  0  0  0  0  0  0  0  0
   15.3246    5.0621   15.4492 C   0  0  0  0  0  0  0  0  0  0  0  0
   15.9526    6.1308   14.8416 C   0  0  0  0  0  0  0  0  0  0  0  0
   17.3391    6.1534   14.6664 C   0  0  0  0  0  0  0  0  0  0  0  0
   18.1095    5.0985   15.1018 C   0  0  0  0  0  0  0  0  0  0  0  0
   17.4745    4.0218   15.7142 C   0  0  0  0  0  0  0  0  0  0  0  0
   17.8641    7.3057   14.0293 N   0  0  0  0  0  0  0  0  0  0  0  0
   17.7513    7.6780   12.7420 C   0  0  0  0  0  0  0  0  0  0  0  0
   17.0427    6.9554   11.6884 C   0  0  0  0  0  0  0  0  0  0  0  0
   17.3684    5.5989   11.5694 C   0  0  0  0  0  0  0  0  0  0  0  0
   16.7881    4.7905   10.6292 C   0  0  0  0  0  0  0  0  0  0  0  0
   15.8493    5.3489    9.7750 C   0  0  0  0  0  0  0  0  0  0  0  0
   15.2119    4.4857    8.7510 C   0  0  0  0  0  0  0  0  0  0  0  0
   15.5392    6.6831    9.9034 C   0  0  0  0  0  0  0  0  0  0  0  0
   16.1244    7.5072   10.8548 C   0  0  0  0  0  0  0  0  0  0  0  0
   18.4173    8.8721   12.5493 C   0  0  0  0  0  0  0  0  0  0  0  0
   18.9420    9.2099   13.7826 C   0  0  0  0  0  0  0  0  0  0  0  0
   19.7491   10.4299   14.0709 C   0  0  2  0  0  0  0  0  0  0  0  0
   19.0166   11.5094   13.5984 F   0  0  0  0  0  0  0  0  0  0  0  0
   20.9285   10.4313   13.3419 F   0  0  0  0  0  0  0  0  0  0  0  0
   20.0020   10.5348   15.4159 F   0  0  0  0  0  0  0  0  0  0  0  0
   18.5787    8.2327   14.6367 N   0  0  0  0  0  0  0  0  0  0  0  0
   15.7937    1.2012   15.8842 N   0  0  0  0  0  0  0  0  0  0  0  0
   13.7789    2.7853   16.4818 O   0  0  0  0  0  0  0  0  0  0  0  0
   15.6655    2.6010   18.0888 O   0  0  0  0  0  0  0  0  0  0  0  0
  1  2  1  0
  2  3  2  0
  3  4  1  0
  4  5  2  0
  5  6  1  0
  2  7  1  0
  6  7  2  0
  5  8  1  0
  8  9  1  0
  9 10  1  0
 10 11  2  0
 11 12  1  0
 12 13  2  0
 13 14  1  0
 13 15  1  0
 10 16  1  0
 15 16  2  0
  9 17  2  0
 17 18  1  0
 18 19  1  0
 19 20  1  6
 19 21  1  0
 19 22  1  0
  8 23  1  0
 18 23  2  0
  1 24  1  6
  1 25  2  0
  1 26  2  0
M  END
$$$$
