1OQ5_CEL_A_701
     RDKit          3D

 26 28  0  0  0  0  0  0  0  0999 V2000
   15.4995    2.7719   16.4505 S   0  0  2  0  0  0  0  0  0  0  0  0
   16.2415    4.2530   15.8898 C   0  0  0  0  0  0  0  0  0  0  0  0
   15.4154    5.3392   15.6699 C   0  0  0  0  0  0  0  0  0  0  0  0
   15.9790    6.5189   15.2271 C   0  0  0  0  0  0  0  0  0  0  0  0
   17.3543    6.6261   15.0020 C   0  0  0  0  0  0  0  0  0  0  0  0
   18.1782    5.5448   15.2208 C   0  0  0  0  0  0  0  0  0  0  0  0
   17.6082    4.3561   15.6672 C   0  0  0  0  0  0  0  0  0  0  0  0
   17.8110    7.8891   14.5485 N   0  0  0  0  0  0  0  0  0  0  0  0
   17.1629    8.7951   13.7950 C   0  0  0  0  0  0  0  0  0  0  0  0
   15.8075    8.6720   13.2637 C   0  0  0  0  0  0  0  0  0  0  0  0
   14.9620    9.7574   13.5229 C   0  0  0  0  0  0  0  0  0  0  0  0
   13.6636    9.7886   13.0897 C   0  0  0  0  0  0  0  0  0  0  0  0
   13.1863    8.7020   12.3725 C   0  0  0  0  0  0  0  0  0  0  0  0
   11.7817    8.7211   11.8966 C   0  0  0  0  0  0  0  0  0  0  0  0
   14.0284    7.6426   12.1254 C   0  0  0  0  0  0  0  0  0  0  0  0
   15.3455    7.6058   12.5622 C   0  0  0  0  0  0  0  0  0  0  0  0
   17.9800    9.8886   13.5875 C   0  0  0  0  0  0  0  0  0  0  0  0
   19.1586    9.6051   14.2516 C   0  0  0  0  0  0  0  0  0  0  0  0
   20.3504   10.4989   14.3119 C   0  0  2  0  0  0  0  0  0  0  0  0
   19.9627   11.6275   15.0200 F   0  0  0  0  0  0  0  0  0  0  0  0
   20.6982   10.9521   13.0486 F   0  0  0  0  0  0  0  0  0  0  0  0
   21.4050    9.8577   14.9122 F   0  0  0  0  0  0  0  0  0  0  0  0
   19.0022    8.3896   14.8123 N   0  0  0  0  0  0  0  0  0  0  0  0
   16.1066    1.4673   15.4880 N   0  0  0  0  0  0  0  0  0  0  0  0
   14.0000    2.8287   16.2846 O   0  0  0  0  0  0  0  0  0  0  0  0
   15.8926    2.5302   17.8671 O   0  0  0  0  0  0  0  0  0  0  0  0
  1  2  1  0
  2  3  2  0
  3  4  1  0
  4  5  2  0
  5  6  1  0
  2  7  1  0
  6  7  2  0
  5  8  1  0
  8  9  1  0
  9 10  1  0
 10 11  2  0
 11 12  1  0
 12 13  2  0
 13 14  1  0
 13 15  1  0
 10 16  1  0
 15 16  2  0
  9 17  2  0
 17 18  1  0
 18 19  1  0
 19 20  1  1
 19 21  1  0
 19 22  1  0
  8 23  1  0
 18 23  2  0
  1 24  1  6
  1 25  2  0
  1 26  2  0
M  END
$$$$
