1OQ5_CEL_A_701
     RDKit          3D

 26 28  0  0  0  0  0  0  0  0999 V2000
   15.3967    2.7796   16.7574 S   0  0  2  0  0  0  0  0  0  0  0  0
   15.5703    4.1523   15.6878 C   0  0  0  0  0  0  0  0  0  0  0  0
   14.4162    4.7883   15.2705 C   0  0  0  0  0  0  0  0  0  0  0  0
   14.5289    5.8743   14.4258 C   0  0  0  0  0  0  0  0  0  0  0  0
   15.7774    6.3312   13.9943 C   0  0  0  0  0  0  0  0  0  0  0  0
   16.9277    5.6984   14.4093 C   0  0  0  0  0  0  0  0  0  0  0  0
   16.8122    4.6035   15.2610 C   0  0  0  0  0  0  0  0  0  0  0  0
   15.7608    7.4541   13.1294 N   0  0  0  0  0  0  0  0  0  0  0  0
   16.7047    8.3969   12.9595 C   0  0  0  0  0  0  0  0  0  0  0  0
   17.9905    8.4718   13.6491 C   0  0  0  0  0  0  0  0  0  0  0  0
   17.9211    8.4672   15.0474 C   0  0  0  0  0  0  0  0  0  0  0  0
   19.0411    8.5325   15.8322 C   0  0  0  0  0  0  0  0  0  0  0  0
   20.2762    8.6050   15.2060 C   0  0  0  0  0  0  0  0  0  0  0  0
   21.4987    8.6763   16.0429 C   0  0  0  0  0  0  0  0  0  0  0  0
   20.3291    8.6086   13.8313 C   0  0  0  0  0  0  0  0  0  0  0  0
   19.1969    8.5427   13.0309 C   0  0  0  0  0  0  0  0  0  0  0  0
   16.2772    9.3098   12.0159 C   0  0  0  0  0  0  0  0  0  0  0  0
   15.0260    8.8775   11.6185 C   0  0  0  0  0  0  0  0  0  0  0  0
   14.1634    9.5500   10.6053 C   0  0  2  0  0  0  0  0  0  0  0  0
   14.9987    9.9299    9.5646 F   0  0  0  0  0  0  0  0  0  0  0  0
   13.6318   10.7285   11.1064 F   0  0  0  0  0  0  0  0  0  0  0  0
   13.1700    8.7043   10.1792 F   0  0  0  0  0  0  0  0  0  0  0  0
   14.7646    7.7569   12.3202 N   0  0  0  0  0  0  0  0  0  0  0  0
   16.0932    1.3989   15.9793 N   0  0  0  0  0  0  0  0  0  0  0  0
   13.9391    2.4908   17.0249 O   0  0  0  0  0  0  0  0  0  0  0  0
   16.1515    3.0376   18.0157 O   0  0  0  0  0  0  0  0  0  0  0  0
  1  2  1  0
  2  3  2  0
  3  4  1  0
  4  5  2  0
  5  6  1  0
  2  7  1  0
  6  7  2  0
  5  8  1  0
  8  9  1  0
  9 10  1  0
 10 11  2  0
 11 12  1  0
 12 13  2  0
 13 14  1  0
 13 15  1  0
 10 16  1  0
 15 16  2  0
  9 17  2  0
 17 18  1  0
 18 19  1  0
 19 20  1  6
 19 21  1  0
 19 22  1  0
  8 23  1  0
 18 23  2  0
  1 24  1  6
  1 25  2  0
  1 26  2  0
M  END
$$$$
