1OQ5_CEL_A_701
     RDKit          3D

 26 28  0  0  0  0  0  0  0  0999 V2000
   15.1400    2.6757   16.7477 S   0  0  2  0  0  0  0  0  0  0  0  0
   15.8658    4.0749   15.9900 C   0  0  0  0  0  0  0  0  0  0  0  0
   17.1534    3.9441   15.5048 C   0  0  0  0  0  0  0  0  0  0  0  0
   17.7466    5.0354   14.9027 C   0  0  0  0  0  0  0  0  0  0  0  0
   17.0705    6.2526   14.7799 C   0  0  0  0  0  0  0  0  0  0  0  0
   15.7878    6.3842   15.2629 C   0  0  0  0  0  0  0  0  0  0  0  0
   15.1913    5.2826   15.8697 C   0  0  0  0  0  0  0  0  0  0  0  0
   17.7864    7.2971   14.1428 N   0  0  0  0  0  0  0  0  0  0  0  0
   18.0671    7.4470   12.8362 C   0  0  0  0  0  0  0  0  0  0  0  0
   17.6847    6.5399   11.7567 C   0  0  0  0  0  0  0  0  0  0  0  0
   18.5929    6.4568   10.6944 C   0  0  0  0  0  0  0  0  0  0  0  0
   18.3736    5.6498    9.6104 C   0  0  0  0  0  0  0  0  0  0  0  0
   17.2095    4.8970    9.5793 C   0  0  0  0  0  0  0  0  0  0  0  0
   16.9579    4.0179    8.4115 C   0  0  0  0  0  0  0  0  0  0  0  0
   16.3263    4.9887   10.6301 C   0  0  0  0  0  0  0  0  0  0  0  0
   16.5436    5.8052   11.7314 C   0  0  0  0  0  0  0  0  0  0  0  0
   18.7875    8.6104   12.6518 C   0  0  0  0  0  0  0  0  0  0  0  0
   18.9324    9.1630   13.9105 C   0  0  0  0  0  0  0  0  0  0  0  0
   19.6463   10.4358   14.2160 C   0  0  2  0  0  0  0  0  0  0  0  0
   18.8725   11.4595   13.6883 F   0  0  0  0  0  0  0  0  0  0  0  0
   20.8585   10.5008   13.5461 F   0  0  0  0  0  0  0  0  0  0  0  0
   19.8240   10.5768   15.5696 F   0  0  0  0  0  0  0  0  0  0  0  0
   18.3110    8.3316   14.7701 N   0  0  0  0  0  0  0  0  0  0  0  0
   15.6266    1.2703   15.8618 N   0  0  0  0  0  0  0  0  0  0  0  0
   13.6335    2.7665   16.7071 O   0  0  0  0  0  0  0  0  0  0  0  0
   15.6512    2.5502   18.1415 O   0  0  0  0  0  0  0  0  0  0  0  0
  1  2  1  0
  2  3  2  0
  3  4  1  0
  4  5  2  0
  5  6  1  0
  2  7  1  0
  6  7  2  0
  5  8  1  0
  8  9  1  0
  9 10  1  0
 10 11  2  0
 11 12  1  0
 12 13  2  0
 13 14  1  0
 13 15  1  0
 10 16  1  0
 15 16  2  0
  9 17  2  0
 17 18  1  0
 18 19  1  0
 19 20  1  6
 19 21  1  0
 19 22  1  0
  8 23  1  0
 18 23  2  0
  1 24  1  6
  1 25  2  0
  1 26  2  0
M  END
$$$$
