1OQ5_CEL_A_701
     RDKit          3D

 26 28  0  0  0  0  0  0  0  0999 V2000
   15.3179    2.7894   16.6708 S   0  0  2  0  0  0  0  0  0  0  0  0
   16.0777    4.2155   16.0019 C   0  0  0  0  0  0  0  0  0  0  0  0
   15.2873    5.3340   15.8158 C   0  0  0  0  0  0  0  0  0  0  0  0
   15.8655    6.4714   15.2891 C   0  0  0  0  0  0  0  0  0  0  0  0
   17.2204    6.5046   14.9471 C   0  0  0  0  0  0  0  0  0  0  0  0
   18.0088    5.3910   15.1321 C   0  0  0  0  0  0  0  0  0  0  0  0
   17.4240    4.2450   15.6633 C   0  0  0  0  0  0  0  0  0  0  0  0
   17.6952    7.7300   14.4159 N   0  0  0  0  0  0  0  0  0  0  0  0
   17.1410    8.5041   13.4660 C   0  0  0  0  0  0  0  0  0  0  0  0
   15.8924    8.2436   12.7535 C   0  0  0  0  0  0  0  0  0  0  0  0
   15.2266    9.3795   12.2774 C   0  0  0  0  0  0  0  0  0  0  0  0
   14.0450    9.2965   11.5907 C   0  0  0  0  0  0  0  0  0  0  0  0
   13.5039    8.0393   11.3682 C   0  0  0  0  0  0  0  0  0  0  0  0
   12.2242    7.9333   10.6258 C   0  0  0  0  0  0  0  0  0  0  0  0
   14.1691    6.9322   11.8418 C   0  0  0  0  0  0  0  0  0  0  0  0
   15.3671    7.0106   12.5385 C   0  0  0  0  0  0  0  0  0  0  0  0
   17.9388    9.6105   13.2520 C   0  0  0  0  0  0  0  0  0  0  0  0
   19.0072    9.4732   14.1182 C   0  0  0  0  0  0  0  0  0  0  0  0
   20.1399   10.4340   14.2486 C   0  0  2  0  0  0  0  0  0  0  0  0
   19.5806   11.7036   14.2716 F   0  0  0  0  0  0  0  0  0  0  0  0
   20.9513   10.4038   13.1247 F   0  0  0  0  0  0  0  0  0  0  0  0
   20.8641   10.1751   15.3854 F   0  0  0  0  0  0  0  0  0  0  0  0
   18.8099    8.3243   14.7944 N   0  0  0  0  0  0  0  0  0  0  0  0
   16.0015    1.4008   15.8953 N   0  0  0  0  0  0  0  0  0  0  0  0
   13.8318    2.8004   16.4047 O   0  0  0  0  0  0  0  0  0  0  0  0
   15.6204    2.7079   18.1274 O   0  0  0  0  0  0  0  0  0  0  0  0
  1  2  1  0
  2  3  2  0
  3  4  1  0
  4  5  2  0
  5  6  1  0
  2  7  1  0
  6  7  2  0
  5  8  1  0
  8  9  1  0
  9 10  1  0
 10 11  2  0
 11 12  1  0
 12 13  2  0
 13 14  1  0
 13 15  1  0
 10 16  1  0
 15 16  2  0
  9 17  2  0
 17 18  1  0
 18 19  1  0
 19 20  1  1
 19 21  1  0
 19 22  1  0
  8 23  1  0
 18 23  2  0
  1 24  1  6
  1 25  2  0
  1 26  2  0
M  END
$$$$
