7OMJ_GCP_A_401
     RDKit          3D

 32 34  0  0  0  0  0  0  0  0999 V2000
    7.4987  -11.7193   27.7502 P   0  0  2  0  0  5  0  0  0  0  0  0
    7.4191  -12.6098   28.9437 O   0  0  0  0  0  0  0  0  0  0  0  0
    8.3558  -12.4630   26.4966 O   0  0  0  0  0  0  0  0  0  0  0  0
    8.2787  -10.2800   28.1003 O   0  0  0  0  0  0  0  0  0  0  0  0
    5.8070  -11.3431   27.1887 C   0  0  0  0  0  0  0  0  0  0  0  0
    5.7914   -9.8080   26.2255 P   0  0  1  0  0  5  0  0  0  0  0  0
    5.3976   -8.6982   27.1977 O   0  0  0  0  0  0  0  0  0  0  0  0
    7.3622   -9.5695   25.6320 O   0  0  0  0  0  0  0  0  0  0  0  0
    4.7461   -9.8516   24.9231 O   0  0  0  0  0  0  0  0  0  0  0  0
    4.0824  -11.3994   24.7596 P   0  0  1  0  0  5  0  0  0  0  0  0
    5.1817  -12.3812   24.3586 O   0  0  0  0  0  0  0  0  0  0  0  0
    3.4778  -11.8454   26.2743 O   0  0  0  0  0  0  0  0  0  0  0  0
    2.8768  -11.4467   23.5925 O   0  0  0  0  0  0  0  0  0  0  0  0
    3.2221  -12.2125   22.4815 C   0  0  0  0  0  0  0  0  0  0  0  0
    3.0758  -11.4814   21.1750 C   0  0  1  0  0  0  0  0  0  0  0  0
    3.6323  -10.1825   21.2391 O   0  0  0  0  0  0  0  0  0  0  0  0
    3.8318  -12.0734   20.0333 C   0  0  1  0  0  0  0  0  0  0  0  0
    3.2061  -13.1778   19.4730 O   0  0  0  0  0  0  0  0  0  0  0  0
    3.8117  -10.9088   19.0334 C   0  0  1  0  0  0  0  0  0  0  0  0
    2.8305  -11.1180   18.0774 O   0  0  0  0  0  0  0  0  0  0  0  0
    3.3414   -9.7755   19.9272 C   0  0  2  0  0  0  0  0  0  0  0  0
    3.9168   -8.5093   19.5917 N   0  0  0  0  0  0  0  0  0  0  0  0
    5.1208   -8.0943   20.0560 C   0  0  0  0  0  0  0  0  0  0  0  0
    5.4069   -6.8842   19.5862 N   0  0  0  0  0  0  0  0  0  0  0  0
    4.4007   -6.4943   18.8138 C   0  0  0  0  0  0  0  0  0  0  0  0
    4.1967   -5.3376   18.0947 C   0  0  0  0  0  0  0  0  0  0  0  0
    5.0106   -4.3850   18.0578 O   0  0  0  0  0  0  0  0  0  0  0  0
    3.0399   -5.2456   17.3926 N   0  0  0  0  0  0  0  0  0  0  0  0
    2.1243   -6.2511   17.3995 C   0  0  0  0  0  0  0  0  0  0  0  0
    0.9411   -6.0568   16.6290 N   0  0  0  0  0  0  0  0  0  0  0  0
    2.3354   -7.3900   18.1133 N   0  0  0  0  0  0  0  0  0  0  0  0
    3.4686   -7.5108   18.8171 C   0  0  0  0  0  0  0  0  0  0  0  0
  1  2  2  0
  1  3  1  6
  1  4  1  0
  5  1  1  6
  5  6  1  0
  6  7  2  0
  6  8  1  6
  6  9  1  0
 10  9  1  0
 10 11  2  0
 10 12  1  1
 10 13  1  0
 14 13  1  1
 15 14  1  0
 15 16  1  1
 15 17  1  0
 17 18  1  6
 17 19  1  0
 19 20  1  6
 16 21  1  0
 19 21  1  0
 21 22  1  6
 22 23  1  0
 23 24  2  0
 24 25  1  0
 25 26  1  0
 26 27  2  0
 26 28  1  0
 28 29  1  0
 29 30  1  0
 29 31  2  0
 22 32  1  0
 25 32  2  0
 31 32  1  0
M  END
$$$$
