1JLA_TNK_A_999
     RDKit          3D

 51 53  0  0  0  0  0  0  0  0999 V2000
   -5.1658  -34.3486   26.5058 C   0  0  0  0  0  0  0  0  0  0  0  0
   -5.8895  -33.1707   26.2582 C   0  0  0  0  0  0  0  0  0  0  0  0
   -6.4120  -32.4204   27.3436 C   0  0  0  0  0  0  0  0  0  0  0  0
   -6.2054  -32.8628   28.6795 C   0  0  0  0  0  0  0  0  0  0  0  0
   -5.4828  -34.0480   28.9235 C   0  0  0  0  0  0  0  0  0  0  0  0
   -4.9673  -34.7879   27.8326 C   0  0  0  0  0  0  0  0  0  0  0  0
   -5.2170  -35.1376   23.9633 C   0  0  0  0  0  0  0  0  0  0  0  0
   -4.3973  -34.9915   22.8185 N   0  0  0  0  0  4  0  0  0  0  0  0
   -4.9338  -35.0721   21.5120 C   0  0  0  0  0  0  0  0  0  0  0  0
   -4.2564  -34.9890   20.4896 O   0  0  0  0  0  0  0  0  0  0  0  0
   -6.2962  -35.2926   21.4272 N   0  0  0  0  0  4  0  0  0  0  0  0
   -7.1822  -35.4480   22.4894 C   0  0  0  0  0  0  0  0  0  0  0  0
   -8.3770  -35.6332   22.2651 O   0  0  0  0  0  0  0  0  0  0  0  0
   -6.6076  -35.3736   23.8183 C   0  0  0  0  0  0  0  0  0  0  0  0
   -4.5208  -35.0746   25.3351 C   0  0  0  0  0  0  0  0  0  0  0  0
   -7.6126  -35.6791   24.9475 C   0  0  1  0  0  0  0  0  0  0  0  0
   -7.2303  -36.8664   25.8521 C   0  0  0  0  0  0  0  0  0  0  0  0
   -8.1446  -34.4527   25.6586 C   0  0  0  0  0  0  0  0  0  0  0  0
   -2.9163  -34.8171   22.9192 C   0  0  0  0  0  0  0  0  0  0  0  0
   -2.2579  -35.6396   21.9716 O   0  0  0  0  0  0  0  0  0  0  0  0
   -0.8467  -35.5583   22.0856 C   0  0  0  0  0  0  0  0  0  0  0  0
   -0.3189  -36.6587   22.9526 C   0  0  0  0  0  0  0  0  0  0  0  0
   -0.9631  -37.9108   22.9785 C   0  0  0  0  0  0  0  0  0  0  0  0
   -0.5408  -38.9087   23.8770 C   0  0  0  0  0  0  0  0  0  0  0  0
    0.5356  -38.6466   24.7539 C   0  0  0  0  0  0  0  0  0  0  0  0
    1.1825  -37.3876   24.7193 C   0  0  0  0  0  0  0  0  0  0  0  0
    0.7501  -36.3979   23.8136 C   0  0  0  0  0  0  0  0  0  0  0  0
   -6.0412  -32.8514   25.2887 H   0  0  0  0  0  0  0  0  0  0  0  0
   -6.9421  -31.5534   27.1635 H   0  0  0  0  0  0  0  0  0  0  0  0
   -6.5840  -32.3166   29.4691 H   0  0  0  0  0  0  0  0  0  0  0  0
   -5.3307  -34.3741   29.8908 H   0  0  0  0  0  0  0  0  0  0  0  0
   -4.4408  -35.6578   28.0090 H   0  0  0  0  0  0  0  0  0  0  0  0
   -6.6793  -35.3450   20.5218 H   0  0  0  0  0  0  0  0  0  0  0  0
   -3.5711  -34.6089   25.1738 H   0  0  0  0  0  0  0  0  0  0  0  0
   -4.5342  -36.0958   25.6541 H   0  0  0  0  0  0  0  0  0  0  0  0
   -8.4756  -36.0527   24.4370 H   0  0  0  0  0  0  0  0  0  0  0  0
   -6.3635  -36.6129   26.4260 H   0  0  0  0  0  0  0  0  0  0  0  0
   -8.0427  -37.0880   26.5122 H   0  0  0  0  0  0  0  0  0  0  0  0
   -7.0190  -37.7227   25.2464 H   0  0  0  0  0  0  0  0  0  0  0  0
   -7.3539  -33.9898   26.2113 H   0  0  0  0  0  0  0  0  0  0  0  0
   -8.5285  -33.7611   24.9380 H   0  0  0  0  0  0  0  0  0  0  0  0
   -8.9273  -34.7405   26.3290 H   0  0  0  0  0  0  0  0  0  0  0  0
   -2.6679  -33.7936   22.7309 H   0  0  0  0  0  0  0  0  0  0  0  0
   -2.5993  -35.0969   23.9021 H   0  0  0  0  0  0  0  0  0  0  0  0
   -0.4109  -35.6394   21.1117 H   0  0  0  0  0  0  0  0  0  0  0  0
   -0.5923  -34.6192   22.5307 H   0  0  0  0  0  0  0  0  0  0  0  0
   -1.7486  -38.0976   22.3356 H   0  0  0  0  0  0  0  0  0  0  0  0
   -1.0143  -39.8255   23.8952 H   0  0  0  0  0  0  0  0  0  0  0  0
    0.8497  -39.3713   25.4181 H   0  0  0  0  0  0  0  0  0  0  0  0
    1.9705  -37.1946   25.3571 H   0  0  0  0  0  0  0  0  0  0  0  0
    1.2230  -35.4810   23.7866 H   0  0  0  0  0  0  0  0  0  0  0  0
  1  2  4  0
  2  3  4  0
  3  4  4  0
  4  5  4  0
  1  6  4  0
  5  6  4  0
  7  8  4  0
  8  9  4  0
  9 10  2  0
  9 11  4  0
 11 12  4  0
 12 13  2  0
  7 14  4  0
 12 14  4  0
  1 15  1  0
  7 15  1  0
 14 16  1  0
 16 17  1  0
 16 18  1  0
  8 19  1  0
 19 20  1  0
 20 21  1  0
 21 22  1  0
 22 23  4  0
 23 24  4  0
 24 25  4  0
 25 26  4  0
 22 27  4  0
 26 27  4  0
  2 28  1  0
  3 29  1  0
  4 30  1  0
  5 31  1  0
  6 32  1  0
 11 33  1  0
 15 34  1  0
 15 35  1  0
 16 36  1  1
 17 37  1  0
 17 38  1  0
 17 39  1  0
 18 40  1  0
 18 41  1  0
 18 42  1  0
 19 43  1  0
 19 44  1  0
 21 45  1  0
 21 46  1  0
 23 47  1  0
 24 48  1  0
 25 49  1  0
 26 50  1  0
 27 51  1  0
M  CHG  2   8   1  11   1
M  END
