1N46_PFA_A_462
     RDKit          3D

 48 50  0  0  0  0  0  0  0  0999 V2000
   -2.5294    4.0881    0.7567 O   0  0  0  0  0  0  0  0  0  0  0  0
   -1.6287    4.1112    1.6402 C   0  0  0  0  0  0  0  0  0  0  0  0
   -1.7063    5.0191    2.6504 N   0  0  0  0  0  0  0  0  0  0  0  0
   -0.7299    5.0910    3.5910 C   0  0  0  0  0  0  0  0  0  0  0  0
   -0.8050    5.9351    4.5233 O   0  0  0  0  0  0  0  0  0  0  0  0
   -0.5629    3.2494    1.5814 N   0  0  0  0  0  0  0  0  0  0  0  0
    0.4046    3.3275    2.5001 N   0  0  0  0  0  0  0  0  0  0  0  0
    0.3566    4.2271    3.5132 C   0  0  0  0  0  0  0  0  0  0  0  0
   -0.4363    2.2629    0.5395 C   0  0  0  0  0  0  0  0  0  0  0  0
    0.7749    2.1311   -0.1533 C   0  0  0  0  0  0  0  0  0  0  0  0
    0.9270    1.1587   -1.1526 C   0  0  0  0  0  0  0  0  0  0  0  0
    2.2424    1.0111   -1.8644 C   0  0  0  0  0  0  0  0  0  0  0  0
   -1.4976    1.3955    0.2382 C   0  0  0  0  0  0  0  0  0  0  0  0
   -1.3673    0.4227   -0.7640 C   0  0  0  0  0  0  0  0  0  0  0  0
   -2.5330   -0.4777   -1.0690 C   0  0  0  0  0  0  0  0  0  0  0  0
   -0.1349    0.2817   -1.4398 C   0  0  0  0  0  0  0  0  0  0  0  0
    0.0451   -0.7137   -2.4102 O   0  0  0  0  0  0  0  0  0  0  0  0
    0.0413   -2.0901   -2.1390 C   0  0  0  0  0  0  0  0  0  0  0  0
   -0.0525   -2.9796   -3.2102 C   0  0  0  0  0  0  0  0  0  0  0  0
    0.1481   -2.5950   -0.8305 C   0  0  0  0  0  0  0  0  0  0  0  0
    0.1366   -3.9816   -0.5856 C   0  0  0  0  0  0  0  0  0  0  0  0
    0.2389   -4.4745    0.8518 C   0  0  0  0  0  0  0  0  0  0  0  0
   -1.0216   -5.2341    1.2833 C   0  0  0  0  0  0  0  0  0  0  0  0
    1.5062   -5.3076    1.0809 C   0  0  0  0  0  0  0  0  0  0  0  0
    0.0277   -4.8664   -1.6844 C   0  0  0  0  0  0  0  0  0  0  0  0
   -0.0623   -4.3559   -2.9866 C   0  0  0  0  0  0  0  0  0  0  0  0
    0.0095   -6.2467   -1.4898 O   0  0  0  0  0  0  0  0  0  0  0  0
   -2.5204    5.6740    2.6981 H   0  0  0  0  0  0  0  0  0  0  0  0
    1.1537    4.2639    4.2446 H   0  0  0  0  0  0  0  0  0  0  0  0
    1.5981    2.7934    0.0865 H   0  0  0  0  0  0  0  0  0  0  0  0
    2.0772    0.9629   -2.9615 H   0  0  0  0  0  0  0  0  0  0  0  0
    2.7411    0.0771   -1.5302 H   0  0  0  0  0  0  0  0  0  0  0  0
    2.9170    1.8689   -1.6567 H   0  0  0  0  0  0  0  0  0  0  0  0
   -2.4243    1.4712    0.7940 H   0  0  0  0  0  0  0  0  0  0  0  0
   -2.5492   -0.7520   -2.1447 H   0  0  0  0  0  0  0  0  0  0  0  0
   -3.4940    0.0304   -0.8405 H   0  0  0  0  0  0  0  0  0  0  0  0
   -2.4637   -1.3995   -0.4549 H   0  0  0  0  0  0  0  0  0  0  0  0
   -0.1255   -2.6011   -4.2220 H   0  0  0  0  0  0  0  0  0  0  0  0
    0.2436   -1.9067   -0.0007 H   0  0  0  0  0  0  0  0  0  0  0  0
    0.3189   -3.5968    1.5320 H   0  0  0  0  0  0  0  0  0  0  0  0
   -1.1228   -6.1987    0.7455 H   0  0  0  0  0  0  0  0  0  0  0  0
   -0.9788   -5.4480    2.3726 H   0  0  0  0  0  0  0  0  0  0  0  0
   -1.9240   -4.6162    1.0874 H   0  0  0  0  0  0  0  0  0  0  0  0
    1.6282   -5.5179    2.1650 H   0  0  0  0  0  0  0  0  0  0  0  0
    2.3996   -4.7447    0.7353 H   0  0  0  0  0  0  0  0  0  0  0  0
    1.4622   -6.2771    0.5445 H   0  0  0  0  0  0  0  0  0  0  0  0
   -0.1422   -5.0294   -3.8305 H   0  0  0  0  0  0  0  0  0  0  0  0
   -0.0673   -6.8938   -2.2658 H   0  0  0  0  0  0  0  0  0  0  0  0
  1  2  2  0
  2  3  1  0
  3  4  1  0
  4  5  2  0
  2  6  1  0
  6  7  1  0
  4  8  1  0
  7  8  2  0
  6  9  1  0
  9 10  2  0
 10 11  1  0
 11 12  1  0
  9 13  1  0
 13 14  2  0
 14 15  1  0
 11 16  2  0
 14 16  1  0
 16 17  1  0
 17 18  1  0
 18 19  2  0
 18 20  1  0
 20 21  2  0
 21 22  1  0
 22 23  1  0
 22 24  1  0
 21 25  1  0
 19 26  1  0
 25 26  2  0
 25 27  1  0
  3 28  1  0
  8 29  1  0
 10 30  1  0
 12 31  1  0
 12 32  1  0
 12 33  1  0
 13 34  1  0
 15 35  1  0
 15 36  1  0
 15 37  1  0
 19 38  1  0
 20 39  1  0
 22 40  1  0
 23 41  1  0
 23 42  1  0
 23 43  1  0
 24 44  1  0
 24 45  1  0
 24 46  1  0
 26 47  1  0
 27 48  1  0
M  END
