@<TRIPOS>MOLECULE
1N46_PFA_A_462
 48 50 0 0 0
SMALL
GASTEIGER

@<TRIPOS>ATOM
      1 O          17.2230    5.2550    6.1390 O.2     1  UNL1       -0.2446
      2 C          18.0230    4.3770    6.2680 C.ar    1  UNL1        0.3502
      3 N          17.9770    3.3560    7.1890 N.ar    1  UNL1       -0.2722
      4 C          18.9470    2.3970    7.2460 C.ar    1  UNL1        0.2724
      5 O          18.9550    1.4890    8.0470 O.2     1  UNL1       -0.2661
      6 N          19.0230    4.4100    5.4000 N.ar    1  UNL1       -0.1817
      7 N          20.0320    3.4130    5.4060 N.ar    1  UNL1       -0.1651
      8 C          20.0190    2.4460    6.2520 C.ar    1  UNL1        0.1128
      9 C          19.2990    5.4070    4.4430 C.ar    1  UNL1        0.0714
     10 C          20.4930    6.1760    4.7530 C.ar    1  UNL1       -0.0297
     11 C          20.8590    7.2330    3.8770 C.ar    1  UNL1       -0.0059
     12 C          22.0400    8.0590    4.1150 C.3     1  UNL1       -0.0362
     13 C          18.5530    5.7190    3.3210 C.ar    1  UNL1       -0.0297
     14 C          18.9560    6.7020    2.3970 C.ar    1  UNL1       -0.0059
     15 C          18.0880    7.0200    1.1620 C.3     1  UNL1       -0.0362
     16 C          20.1030    7.4820    2.6960 C.ar    1  UNL1        0.1343
     17 O          20.3800    8.5040    1.8130 O.3     1  UNL1       -0.4555
     18 C          21.4190    8.3390    0.9100 C.ar    1  UNL1        0.1290
     19 C          21.6800    7.0750    0.2610 C.ar    1  UNL1       -0.0159
     20 C          22.2200    9.5120    0.6640 C.ar    1  UNL1       -0.0124
     21 C          23.2950    9.4250   -0.2570 C.ar    1  UNL1        0.0001
     22 C          24.2110   10.6460   -0.5040 C.3     1  UNL1       -0.0180
     23 C          23.2930   11.8890   -0.7160 C.3     1  UNL1       -0.0585
     24 C          25.0970   10.7800    0.7600 C.3     1  UNL1       -0.0585
     25 C          23.5830    8.1750   -0.8550 C.ar    1  UNL1        0.1205
     26 C          22.7560    7.0450   -0.6370 C.ar    1  UNL1       -0.0164
     27 O          24.6370    8.0360   -1.7310 O.3     1  UNL1       -0.5065
     28 H          17.2252    3.3159    7.8233 H       1  UNL1        0.1735
     29 H          20.7504    1.7183    6.2306 H       1  UNL1        0.0903
     30 H          21.0601    5.9598    5.5877 H       1  UNL1        0.0643
     31 H          22.5045    7.7614    5.0318 H       1  UNL1        0.0279
     32 H          21.7493    9.0867    4.1796 H       1  UNL1        0.0279
     33 H          22.7313    7.9339    3.3079 H       1  UNL1        0.0279
     34 H          17.6690    5.2130    3.1550 H       1  UNL1        0.0643
     35 H          17.2759    6.3254    1.1084 H       1  UNL1        0.0279
     36 H          18.6842    6.9407    0.2770 H       1  UNL1        0.0279
     37 H          17.7019    8.0145    1.2439 H       1  UNL1        0.0279
     38 H          21.1050    6.2388    0.4485 H       1  UNL1        0.0655
     39 H          22.0148   10.3993    1.1494 H       1  UNL1        0.0658
     40 H          24.8368   10.5497   -1.3666 H       1  UNL1        0.0345
     41 H          22.6544   12.0099    0.1340 H       1  UNL1        0.0235
     42 H          22.6966   11.7465   -1.5928 H       1  UNL1        0.0235
     43 H          23.8983   12.7633   -0.8346 H       1  UNL1        0.0235
     44 H          24.4734   10.8765    1.6241 H       1  UNL1        0.0235
     45 H          25.7182   11.6465    0.6699 H       1  UNL1        0.0235
     46 H          25.7113    9.9095    0.8589 H       1  UNL1        0.0235
     47 H          22.9517    6.1740   -1.1548 H       1  UNL1        0.0655
     48 H          25.2049    8.7620   -1.8996 H       1  UNL1        0.2921
@<TRIPOS>BOND
     1     1     2    2
     2     2     3   ar
     3     3     4   ar
     4     4     5    2
     5     2     6   ar
     6     6     7   ar
     7     4     8   ar
     8     7     8   ar
     9     6     9    1
    10     9    10   ar
    11    10    11   ar
    12    11    12    1
    13     9    13   ar
    14    13    14   ar
    15    14    15    1
    16    11    16   ar
    17    14    16   ar
    18    16    17    1
    19    17    18    1
    20    18    19   ar
    21    18    20   ar
    22    20    21   ar
    23    21    22    1
    24    22    23    1
    25    22    24    1
    26    21    25   ar
    27    19    26   ar
    28    25    26   ar
    29    25    27    1
    30     3    28    1
    31     8    29    1
    32    10    30    1
    33    12    31    1
    34    12    32    1
    35    12    33    1
    36    13    34    1
    37    15    35    1
    38    15    36    1
    39    15    37    1
    40    19    38    1
    41    20    39    1
    42    22    40    1
    43    23    41    1
    44    23    42    1
    45    23    43    1
    46    24    44    1
    47    24    45    1
    48    24    46    1
    49    26    47    1
    50    27    48    1
