7AVI_S2Q_B_1101
     RDKit          3D

 27 29  0  0  0  0  0  0  0  0999 V2000
  -17.9055   34.8132  -54.0886 C   0  0  0  0  0  0  0  0  0  0  0  0
  -17.8990   34.2046  -55.3290 C   0  0  0  0  0  0  0  0  0  0  0  0
  -18.0744   32.8237  -55.4590 C   0  0  0  0  0  0  0  0  0  0  0  0
  -18.2543   32.0899  -54.3015 C   0  0  0  0  0  0  0  0  0  0  0  0
  -18.4356   30.6623  -54.4358 C   0  0  0  0  0  0  0  0  0  0  0  0
  -18.7136   28.3373  -53.4846 C   0  0  1  0  0  0  0  0  0  0  0  0
  -19.6602   27.8418  -52.4096 C   0  0  0  0  0  0  0  0  0  0  0  0
  -16.9769   26.7465  -54.1308 C   0  0  0  0  0  0  0  0  0  0  0  0
  -14.9234   26.4597  -52.9672 C   0  0  0  0  0  0  0  0  0  0  0  0
  -17.6126   35.0670  -57.7487 C   0  0  1  0  0  0  0  0  0  0  0  0
  -16.1618   34.9954  -58.1758 C   0  0  0  0  0  0  0  0  0  0  0  0
  -17.7192   36.1114  -54.2695 O   0  0  0  0  0  0  0  0  0  0  0  0
  -17.5956   36.3648  -55.5388 N   0  0  0  0  0  0  0  0  0  0  0  0
  -17.6970   35.2273  -56.2533 C   0  0  0  0  0  0  0  0  0  0  0  0
  -18.0848   34.0665  -52.9641 N   0  0  0  0  0  0  0  0  0  0  0  0
  -18.2541   32.7371  -53.0824 C   0  0  0  0  0  0  0  0  0  0  0  0
  -18.6639   29.7882  -53.3395 N   0  0  0  0  0  0  0  0  0  0  0  0
  -18.3883   30.1652  -55.5909 O   0  0  0  0  0  0  0  0  0  0  0  0
  -17.3804   27.7236  -53.2461 C   0  0  0  0  0  0  0  0  0  0  0  0
  -15.7550   26.0938  -54.0213 C   0  0  0  0  0  0  0  0  0  0  0  0
  -16.5555   28.0833  -52.2047 C   0  0  0  0  0  0  0  0  0  0  0  0
  -15.3399   27.4441  -52.0834 C   0  0  0  0  0  0  0  0  0  0  0  0
  -18.2435   36.2533  -58.4150 C   0  0  0  0  0  0  0  0  0  0  0  0
  -14.2837   27.8894  -50.7682 S   0  0  1  0  0  6  0  0  0  0  0  0
  -14.9292   27.6404  -49.4143 O   0  0  0  0  0  0  0  0  0  0  0  0
  -13.0355   27.0601  -50.7887 O   0  0  0  0  0  0  0  0  0  0  0  0
  -13.8000   29.5521  -50.8477 N   0  0  0  0  0  0  0  0  0  0  0  0
  1  2  1  0
  2  3  2  0
  3  4  1  0
  4  5  1  0
  7  6  1  1
 11 10  1  6
  1 12  1  0
 12 13  1  0
 10 14  1  1
  2 14  1  0
 13 14  2  0
  1 15  2  0
  4 16  2  0
 15 16  1  0
  6 17  1  1
  5 17  1  0
  5 18  2  0
  6 19  1  0
  8 19  2  0
  8 20  1  0
  9 20  2  0
 19 21  1  0
 21 22  2  0
  9 22  1  0
 23 10  1  6
 22 24  1  0
 24 25  2  0
 24 26  2  0
 24 27  1  6
M  END
$$$$
