@<TRIPOS>MOLECULE
1OF6_DTY_A_1370
 24 24 0 0 0
SMALL
GASTEIGER

@<TRIPOS>ATOM
      1 N          30.6770   -3.3700   50.5160 N.3     1  TYR1       -0.3181
      2 CA         31.3780   -3.1310   49.2550 C.3     1  TYR1        0.1072
      3 C          31.9670   -4.4050   48.6940 C.2     1  TYR1        0.3220
      4 O          32.0170   -5.4920   49.3380 O.2     1  TYR1       -0.2492
      5 CB         32.4890   -2.1160   49.5260 C.3     1  TYR1       -0.0020
      6 CG         32.0300   -0.7150   49.8830 C.ar    1  TYR1       -0.0451
      7 CD1        32.2930   -0.2240   51.1250 C.ar    1  TYR1       -0.0551
      8 CD2        31.3170    0.0570   48.9730 C.ar    1  TYR1       -0.0551
      9 CE1        31.8570    1.0320   51.4460 C.ar    1  TYR1       -0.0199
     10 CE2        30.9070    1.3420   49.2730 C.ar    1  TYR1       -0.0199
     11 CZ         31.2050    1.8270   50.5410 C.ar    1  TYR1        0.1169
     12 OH         30.8150    2.9790   50.9180 O.3     1  TYR1       -0.5068
     13 OXT        32.3720   -4.3160   47.5370 O.3     1  TYR1       -0.4795
     14 H1         29.9277   -4.0455   50.3657 H       1  TYR1        0.1190
     15 H2         30.2815   -2.4936   50.8566 H       1  TYR1        0.1190
     16 HA         30.6859   -2.7589   48.5288 H       1  TYR1        0.0577
     17 HB1        33.0943   -2.0490   48.6462 H       1  TYR1        0.0334
     18 HB2        33.0110   -2.4791   50.3866 H       1  TYR1        0.0334
     19 HD1        32.8130   -0.7903   51.8134 H       1  TYR1        0.0621
     20 HD2        31.0877   -0.3403   48.0485 H       1  TYR1        0.0621
     21 HE1        32.0243    1.3915   52.3988 H       1  TYR1        0.0654
     22 HE2        30.3999    1.9184   48.5833 H       1  TYR1        0.0654
     23 HH         31.0266    3.2873   51.7772 H       1  TYR1        0.2921
     24 HXT        32.3220   -3.4968   47.0848 H       1  TYR1        0.2951
@<TRIPOS>BOND
     1     2     1    1
     2     2     3    1
     3     3     4    2
     4     2     5    1
     5     5     6    1
     6     6     7   ar
     7     6     8   ar
     8     7     9   ar
     9     8    10   ar
    10     9    11   ar
    11    10    11   ar
    12    11    12    1
    13     3    13    1
    14     1    14    1
    15     1    15    1
    16     2    16    1
    17     5    17    1
    18     5    18    1
    19     7    19    1
    20     8    20    1
    21     9    21    1
    22    10    22    1
    23    12    23    1
    24    13    24    1
