7WPW_F15_A_200
     RDKit          3D

 17 16  0  0  0  0  0  0  0  0999 V2000
    9.8492  -21.2294   12.3873 C   0  0  0  0  0  0  0  0  0  0  0  0
    8.5208  -20.9667   12.6000 O   0  0  0  0  0  0  0  0  0  0  0  0
   10.4848  -22.1361   13.0238 O   0  0  0  0  0  0  0  0  0  0  0  0
   10.6760  -20.4797   11.3883 C   0  0  0  0  0  0  0  0  0  0  0  0
   12.0747  -21.0338   11.3664 C   0  0  0  0  0  0  0  0  0  0  0  0
   13.7904  -22.1087    9.9858 C   0  0  0  0  0  0  0  0  0  0  0  0
   13.9732  -22.6334    8.5543 C   0  0  0  0  0  0  0  0  0  0  0  0
   12.4681  -21.3860    9.9740 C   0  0  0  0  0  0  0  0  0  0  0  0
   13.3804  -24.0097    8.5402 C   0  0  0  0  0  0  0  0  0  0  0  0
   14.3623  -25.1045    8.2557 C   0  0  0  0  0  0  0  0  0  0  0  0
   13.5232  -26.3824    8.0823 C   0  0  0  0  0  0  0  0  0  0  0  0
   14.3733  -27.6036    8.1712 C   0  0  0  0  0  0  0  0  0  0  0  0
   15.2619  -27.7315    6.9261 C   0  0  0  0  0  0  0  0  0  0  0  0
   16.1674  -28.8973    7.0652 C   0  0  0  0  0  0  0  0  0  0  0  0
   16.9763  -29.1575    5.8256 C   0  0  0  0  0  0  0  0  0  0  0  0
   18.1106  -30.0914    6.1493 C   0  0  0  0  0  0  0  0  0  0  0  0
   17.4775  -31.4704    6.3199 C   0  0  0  0  0  0  0  0  0  0  0  0
  1  2  1  0
  1  3  2  0
  1  4  1  0
  4  5  1  0
  6  7  1  0
  5  8  1  0
  6  8  1  0
  7  9  1  0
  9 10  1  0
 10 11  1  0
 11 12  1  0
 12 13  1  0
 13 14  1  0
 14 15  1  0
 15 16  1  0
 16 17  1  0
M  END
$$$$
