@<TRIPOS>MOLECULE
1Q41_IXM_A_451
 32 35 0 0 0
SMALL
GASTEIGER

@<TRIPOS>ATOM
      1 C          -0.6024   -0.0572    2.1092 C.ar    1  UNL1        0.0265
      2 C          -0.7583   -0.3152    0.6748 C.2     1  UNL1        0.1331
      3 C           0.6223    0.5530    2.2866 C.ar    1  UNL1        0.0408
      4 N           1.3245    0.7231    1.0608 N.pl3   1  UNL1       -0.3116
      5 C           1.0758    0.9217    3.5527 C.ar    1  UNL1       -0.0399
      6 C           0.2499    0.6612    4.6582 C.ar    1  UNL1       -0.0600
      7 C          -1.0006    0.0362    4.4812 C.ar    1  UNL1       -0.0610
      8 C          -1.4376   -0.3317    3.1973 C.ar    1  UNL1       -0.0506
      9 C           0.4985    0.1360    0.0473 C.2     1  UNL1        0.0738
     10 C           0.8520    0.0589   -1.2520 C.2     1  UNL1        0.0692
     11 C           1.8921    0.8550   -1.9260 C.2     1  UNL1        0.2508
     12 N           1.8644    0.6506   -3.3331 N.am    1  UNL1       -0.2809
     13 C           0.8464   -0.3177   -3.5408 C.ar    1  UNL1        0.0416
     14 C           0.2427   -0.7113   -2.3554 C.ar    1  UNL1        0.0102
     15 C           0.5474   -0.9329   -4.7558 C.ar    1  UNL1       -0.0399
     16 C          -0.3715   -1.9925   -4.7591 C.ar    1  UNL1       -0.0600
     17 C          -0.9325   -2.4480   -3.5517 C.ar    1  UNL1       -0.0611
     18 C          -0.6034   -1.8281   -2.3350 C.ar    1  UNL1       -0.0520
     19 O           2.6790    1.6648   -1.3695 O.2     1  UNL1       -0.2698
     20 N          -1.8740   -0.5227    0.0463 N.2     1  UNL1       -0.0851
     21 O          -3.0632   -0.7368    0.7022 O.2     1  UNL1       -0.4087
     22 H           2.3111    1.0503    0.9730 H       1  UNL1        0.1522
     23 H           2.0400    1.3961    3.6810 H       1  UNL1        0.0636
     24 H           0.5778    0.9379    5.6518 H       1  UNL1        0.0618
     25 H          -1.6265   -0.1664    5.3406 H       1  UNL1        0.0618
     26 H          -2.3893   -0.8277    3.0741 H       1  UNL1        0.0625
     27 H           2.5001    1.0693   -4.0479 H       1  UNL1        0.1552
     28 H           1.0320   -0.6187   -5.6711 H       1  UNL1        0.0636
     29 H          -0.6180   -2.4886   -5.6888 H       1  UNL1        0.0618
     30 H          -1.5964   -3.3028   -3.5571 H       1  UNL1        0.0618
     31 H          -0.9589   -2.2583   -1.4121 H       1  UNL1        0.0624
     32 H          -3.9110   -0.8959    0.1731 H       1  UNL1        0.3278
@<TRIPOS>BOND
     1     1     2    1
     2     1     3   ar
     3     3     4    1
     4     3     5   ar
     5     5     6   ar
     6     6     7   ar
     7     1     8   ar
     8     7     8   ar
     9     2     9    1
    10     4     9    1
    11     9    10    2
    12    10    11    1
    13    11    12   am
    14    12    13    1
    15    10    14    1
    16    13    14   ar
    17    13    15   ar
    18    15    16   ar
    19    16    17   ar
    20    14    18   ar
    21    17    18   ar
    22    11    19    2
    23     2    20    2
    24    20    21    1
    25     4    22    1
    26     5    23    1
    27     6    24    1
    28     7    25    1
    29     8    26    1
    30    12    27    1
    31    15    28    1
    32    16    29    1
    33    17    30    1
    34    18    31    1
    35    21    32    1
