@<TRIPOS>MOLECULE
1Q41_IXM_A_451
 32 35 0 0 0
SMALL
GASTEIGER

@<TRIPOS>ATOM
      1 C          40.3060    3.9180   35.3810 C.ar    1  UNL1        0.0265
      2 C          39.6890    5.2740   35.2240 C.2     1  UNL1        0.1331
      3 C          40.8210    3.8770   36.6990 C.ar    1  UNL1        0.0408
      4 N          40.5960    5.0550   37.3470 N.pl3   1  UNL1       -0.3116
      5 C          41.4700    2.7350   37.2090 C.ar    1  UNL1       -0.0399
      6 C          41.6140    1.6060   36.3620 C.ar    1  UNL1       -0.0600
      7 C          41.1020    1.6400   35.0270 C.ar    1  UNL1       -0.0610
      8 C          40.4370    2.8060   34.5230 C.ar    1  UNL1       -0.0506
      9 C          39.9390    5.9730   36.5560 C.2     1  UNL1        0.0738
     10 C          39.5920    7.2340   36.9340 C.2     1  UNL1        0.0692
     11 C          40.1170    7.7360   38.2760 C.2     1  UNL1        0.2508
     12 N          39.5880    9.0090   38.4350 N.am    1  UNL1       -0.2809
     13 C          38.7980    9.3720   37.3550 C.ar    1  UNL1        0.0416
     14 C          38.7520    8.3330   36.3870 C.ar    1  UNL1        0.0102
     15 C          38.1100   10.5980   37.2150 C.ar    1  UNL1       -0.0399
     16 C          37.3330   10.7920   36.0480 C.ar    1  UNL1       -0.0600
     17 C          37.2640    9.7690   35.0520 C.ar    1  UNL1       -0.0611
     18 C          37.9780    8.5360   35.2210 C.ar    1  UNL1       -0.0520
     19 O          40.8470    7.1490   39.0760 O.2     1  UNL1       -0.2698
     20 N          39.0400    5.8050   34.2330 N.2     1  UNL1       -0.0851
     21 O          38.8830    5.0110   33.0960 O.2     1  UNL1       -0.4087
     22 H          40.8718    5.2304   38.2757 H       1  UNL1        0.1522
     23 H          41.8319    2.7202   38.1754 H       1  UNL1        0.0636
     24 H          42.0891    0.7585   36.7099 H       1  UNL1        0.0618
     25 H          41.2127    0.8141   34.4182 H       1  UNL1        0.0618
     26 H          40.0651    2.8310   33.5607 H       1  UNL1        0.0625
     27 H          39.7532    9.5831   39.2175 H       1  UNL1        0.1552
     28 H          38.1720   11.3291   37.9408 H       1  UNL1        0.0636
     29 H          36.8148   11.6746   35.9158 H       1  UNL1        0.0618
     30 H          36.6955    9.9186   34.2038 H       1  UNL1        0.0618
     31 H          37.9271    7.8025   34.4968 H       1  UNL1        0.0624
     32 H          38.4226    5.3449   32.3513 H       1  UNL1        0.3278
@<TRIPOS>BOND
     1     1     2    1
     2     1     3   ar
     3     3     4    1
     4     3     5   ar
     5     5     6   ar
     6     6     7   ar
     7     1     8   ar
     8     7     8   ar
     9     2     9    1
    10     4     9    1
    11     9    10    2
    12    10    11    1
    13    11    12   am
    14    12    13    1
    15    10    14    1
    16    13    14   ar
    17    13    15   ar
    18    15    16   ar
    19    16    17   ar
    20    14    18   ar
    21    17    18   ar
    22    11    19    2
    23     2    20    2
    24    20    21    1
    25     4    22    1
    26     5    23    1
    27     6    24    1
    28     7    25    1
    29     8    26    1
    30    12    27    1
    31    15    28    1
    32    16    29    1
    33    17    30    1
    34    18    31    1
    35    21    32    1
