7DQL_4CL_B_301
     RDKit          3D

 14 14  0  0  0  0  0  0  0  0999 V2000
    0.1325   -9.4469    8.1340 Cl  0  0  0  0  0  0  0  0  0  0  0  0
   -1.3155   -9.0260    7.2644 C   0  0  0  0  0  0  0  0  0  0  0  0
   -2.0197  -10.0138    6.6072 C   0  0  0  0  0  0  0  0  0  0  0  0
   -3.1773   -9.6775    5.9280 C   0  0  0  0  0  0  0  0  0  0  0  0
   -3.6318   -8.3625    5.9176 C   0  0  0  0  0  0  0  0  0  0  0  0
   -4.7752   -8.0178    5.2674 O   0  0  0  0  0  0  0  0  0  0  0  0
   -2.9029   -7.3744    6.5895 C   0  0  0  0  0  0  0  0  0  0  0  0
   -1.7339   -7.7082    7.2575 C   0  0  0  0  0  0  0  0  0  0  0  0
   -3.3670   -6.0971    6.5906 O   0  0  0  0  0  0  0  0  0  0  0  0
   -1.6874  -10.9908    6.6221 H   0  0  0  0  0  0  0  0  0  0  0  0
   -3.7071  -10.4069    5.4258 H   0  0  0  0  0  0  0  0  0  0  0  0
   -5.2714   -8.6707    4.8142 H   0  0  0  0  0  0  0  0  0  0  0  0
   -1.1838   -6.9824    7.7430 H   0  0  0  0  0  0  0  0  0  0  0  0
   -4.1581   -5.8856    6.1352 H   0  0  0  0  0  0  0  0  0  0  0  0
  1  2  1  0
  2  3  4  0
  3  4  4  0
  4  5  4  0
  5  6  1  0
  5  7  4  0
  2  8  4  0
  7  8  4  0
  7  9  1  0
  3 10  1  0
  4 11  1  0
  6 12  1  0
  8 13  1  0
  9 14  1  0
M  END
