
     RDKit          3D

 29 32  0  0  0  0  0  0  0  0999 V2000
   -0.3369   22.2950    3.1182 C   0  0  0  0  0  0  0  0  0  0  0  0
   -7.0267   26.8512    0.8902 C   0  0  0  0  0  0  0  0  0  0  0  0
   -2.1867   23.1266    1.7233 C   0  0  0  0  0  0  0  0  0  0  0  0
   -3.6313   24.2507    0.4600 C   0  0  0  0  0  0  0  0  0  0  0  0
   -4.8421   23.6356   -2.7346 C   0  0  0  0  0  0  0  0  0  0  0  0
   -4.2657   24.7877   -0.7050 C   0  0  0  0  0  0  0  0  0  0  0  0
   -3.5113   25.7219   -2.8815 C   0  0  0  0  0  0  0  0  0  0  0  0
   -4.6316   26.0913   -3.8649 C   0  0  0  0  0  0  0  0  0  0  0  0
   -4.6763   23.7236   -4.2604 C   0  0  0  0  0  0  0  0  0  0  0  0
   -5.3757   25.6400   -0.4915 C   0  0  0  0  0  0  0  0  0  0  0  0
   -5.8546   25.9486    0.7837 C   0  0  0  0  0  0  0  0  0  0  0  0
    1.1375   20.8406    4.4391 N   0  0  0  0  0  0  0  0  0  0  0  0
   -1.1105   22.3212    1.9869 N   0  0  0  0  0  0  0  0  0  0  0  0
    0.5433   21.1434    3.2272 C   0  0  0  0  0  0  0  0  0  0  0  0
   -2.5067   23.4247    0.4896 N   0  0  0  0  0  0  0  0  0  0  0  0
    2.6806   19.1841    5.4937 C   0  0  0  0  0  0  0  0  0  0  0  0
    1.9261   19.7239    4.3346 C   0  0  0  0  0  0  0  0  0  0  0  0
   -0.3368   23.1397    4.0069 O   0  0  0  0  0  0  0  0  0  0  0  0
   -3.8901   24.5525   -2.0546 N   0  0  0  0  0  0  0  0  0  0  0  0
   -4.9466   25.0324   -4.7885 O   0  0  0  0  0  0  0  0  0  0  0  0
   -7.1156   27.7104   -0.1399 O   0  0  0  0  0  0  0  0  0  0  0  0
   -7.8473   26.8547    1.7883 O   0  0  0  0  0  0  0  0  0  0  0  0
   -5.2359   25.4149    1.9161 C   0  0  0  0  0  0  0  0  0  0  0  0
   -4.1282   24.5748    1.7261 C   0  0  0  0  0  0  0  0  0  0  0  0
   -3.1725   23.7948    2.9287 S   0  0  0  0  0  0  0  0  0  0  0  0
    0.9782   20.1783    2.3311 C   0  0  0  0  0  0  0  0  0  0  0  0
    0.5763   20.0338    0.6774 Cl  0  0  0  0  0  0  0  0  0  0  0  0
    1.8439   19.2922    3.0273 C   0  0  0  0  0  0  0  0  0  0  0  0
    2.6380   17.9388    2.3651 Cl  0  0  0  0  0  0  0  0  0  0  0  0
  4  6  4  0
  7  8  1  0
  5  9  1  0
  6 10  4  0
 10 11  4  0
  2 11  1  0
  3 13  1  0
  1 13  1  0
  1 14  1  0
 12 14  4  0
  4 15  4  0
  3 15  4  0
 12 17  4  0
 16 17  1  0
  1 18  2  0
  5 19  1  0
  7 19  1  0
  6 19  1  0
  9 20  1  0
  8 20  1  0
  2 21  1  0
  2 22  2  0
 11 23  4  0
  4 24  4  0
 23 24  4  0
  3 25  4  0
 24 25  4  0
 14 26  4  0
 26 27  1  0
 26 28  4  0
 17 28  4  0
 28 29  1  0
M  END
