7LB3_XXS_A_1701
     RDKit          3D

 29 33  0  0  0  0  0  0  0  0999 V2000
    9.8883    4.0047   70.8406 C   0  0  2  0  0  0  0  0  0  0  0  0
   11.7372    2.8739   69.1235 C   0  0  0  0  0  0  0  0  0  0  0  0
    9.2715    3.7445   72.1996 C   0  0  0  0  0  0  0  0  0  0  0  0
   11.5448    7.4094   72.7176 C   0  0  0  0  0  0  0  0  0  0  0  0
   10.6371   10.5888   74.4801 C   0  0  0  0  0  0  0  0  0  0  0  0
    9.2661   10.6610   74.3340 C   0  0  0  0  0  0  0  0  0  0  0  0
    8.6553    9.6424   73.6452 C   0  0  0  0  0  0  0  0  0  0  0  0
    8.4491    7.7795   72.5095 C   0  0  0  0  0  0  0  0  0  0  0  0
   16.7497    4.5946   71.5883 C   0  0  0  0  0  0  0  0  0  0  0  0
   15.1958    6.8755   72.5266 C   0  0  1  0  0  0  0  0  0  0  0  0
   15.8059    7.8613   71.4777 C   0  0  0  0  0  0  0  0  0  0  0  0
   15.6337    8.2709   72.8797 C   0  0  0  0  0  0  0  0  0  0  0  0
   13.7508    6.6147   72.3588 C   0  0  0  0  0  0  0  0  0  0  0  0
   13.2387    5.4776   71.7655 C   0  0  0  0  0  0  0  0  0  0  0  0
   11.8576    5.3302   71.6600 C   0  0  0  0  0  0  0  0  0  0  0  0
    9.5649    2.8192   69.9848 C   0  0  0  0  0  0  0  0  0  0  0  0
   12.1481    3.0595   70.5873 C   0  0  0  0  0  0  0  0  0  0  0  0
   10.7450    8.4953   73.2525 C   0  0  0  0  0  0  0  0  0  0  0  0
   11.3477    9.5457   73.9589 C   0  0  0  0  0  0  0  0  0  0  0  0
    9.3790    8.5881   73.1192 C   0  0  0  0  0  0  0  0  0  0  0  0
   15.5133    4.6164   73.9816 N   0  0  0  0  0  0  0  0  0  0  0  0
   11.3162    4.1680   71.0467 N   0  0  0  0  0  0  0  0  0  0  0  0
   11.0476    6.3048   72.1412 N   0  0  0  0  0  0  0  0  0  0  0  0
    7.2322    8.3221   72.6632 N   0  0  0  0  0  0  0  0  0  0  0  0
    7.3459    9.4545   73.3519 N   0  0  0  0  0  0  0  0  0  0  0  0
   12.8874    7.5203   72.8036 N   0  0  0  0  0  0  0  0  0  0  0  0
   10.4393    2.4917   69.0072 O   0  0  0  0  0  0  0  0  0  0  0  0
   17.4782    6.0762   73.7440 O   0  0  0  0  0  0  0  0  0  0  0  0
   16.2658    5.5642   73.0074 S   0  0  1  0  0  0  0  0  0  0  0  0
  1  3  1  1
  5  6  2  0
  6  7  1  0
 10 11  1  0
 11 12  1  0
 10 12  1  0
 10 13  1  6
 13 14  2  0
 14 15  1  0
  1 16  1  0
  2 17  1  0
  4 18  1  0
 18 19  2  0
  5 19  1  0
  8 20  1  0
 18 20  1  0
  7 20  2  0
 17 22  1  0
  1 22  1  0
 15 22  1  0
 15 23  2  0
  4 23  1  0
  8 24  2  0
 24 25  1  0
  7 25  1  0
 13 26  1  0
  4 26  2  0
  2 27  1  0
 16 27  1  0
 10 29  1  0
 29  9  1  6
 21 29  2  0
 28 29  2  0
M  END
$$$$
