7V3S_5I9_A_1401
     RDKit          3D

 38 43  0  0  0  0  0  0  0  0999 V2000
  -10.5528  -23.7316   30.5306 N   0  0  0  0  0  0  0  0  0  0  0  0
   -9.4576  -13.9923   28.5911 N   0  0  0  0  0  0  0  0  0  0  0  0
   -8.8811  -25.4254   30.7201 C   0  0  0  0  0  0  0  0  0  0  0  0
   -9.1750  -24.0794   30.7396 C   0  0  0  0  0  0  0  0  0  0  0  0
   -8.2028  -23.1078   30.9488 C   0  0  0  0  0  0  0  0  0  0  0  0
  -10.8884  -22.3612   30.5449 C   0  0  0  0  0  0  0  0  0  0  0  0
   -9.9113  -21.4045   30.7542 C   0  0  0  0  0  0  0  0  0  0  0  0
  -11.5995  -19.7749   30.5576 C   0  0  0  0  0  0  0  0  0  0  0  0
   -9.6225  -17.6824   28.9427 C   0  0  0  0  0  0  0  0  0  0  0  0
   -9.4507  -15.3298   29.1140 C   0  0  0  0  0  0  0  0  0  0  0  0
   -9.2235  -16.6832   31.0411 C   0  0  0  0  0  0  0  0  0  0  0  0
   -9.7945  -10.4732   29.7939 C   0  0  0  0  0  0  0  0  0  0  0  0
  -10.8375  -11.3186   27.6830 C   0  0  0  0  0  0  0  0  0  0  0  0
  -11.1596  -10.8810   30.1647 C   0  0  0  0  0  0  0  0  0  0  0  0
  -12.7953  -10.7336   25.2040 C   0  0  0  0  0  0  0  0  0  0  0  0
  -12.0641  -10.0112   23.0061 C   0  0  0  0  0  0  0  0  0  0  0  0
  -10.7573   -9.4806   24.9510 C   0  0  0  0  0  0  0  0  0  0  0  0
   -6.9057  -23.5326   31.1410 C   0  0  0  0  0  0  0  0  0  0  0  0
  -10.2582  -20.0738   30.7642 C   0  0  0  0  0  0  0  0  0  0  0  0
   -9.4160  -17.8365   30.2852 C   0  0  0  0  0  0  0  0  0  0  0  0
   -9.6468  -16.4362   28.3189 C   0  0  0  0  0  0  0  0  0  0  0  0
   -9.2350  -15.4224   30.4878 C   0  0  0  0  0  0  0  0  0  0  0  0
   -9.9387  -12.9740   29.4081 C   0  0  0  0  0  0  0  0  0  0  0  0
  -10.4860  -11.6624   29.0649 C   0  0  2  0  0  0  0  0  0  0  0  0
   -6.5928  -24.8872   31.1242 C   0  0  0  0  0  0  0  0  0  0  0  0
  -11.6771  -10.1341   25.7440 C   0  0  0  0  0  0  0  0  0  0  0  0
  -12.9837  -10.6680   23.8253 C   0  0  0  0  0  0  0  0  0  0  0  0
  -10.9770   -9.4359   23.5900 C   0  0  0  0  0  0  0  0  0  0  0  0
   -7.5878  -25.8417   30.9121 C   0  0  0  0  0  0  0  0  0  0  0  0
  -12.5540  -20.7365   30.3514 C   0  0  0  0  0  0  0  0  0  0  0  0
   -9.0142  -16.7734   32.3754 F   0  0  0  0  0  0  0  0  0  0  0  0
  -12.2287   -9.9362   21.6638 F   0  0  0  0  0  0  0  0  0  0  0  0
  -12.1902  -22.0265   30.3467 N   0  0  0  0  0  0  0  0  0  0  0  0
  -11.4189  -10.1624   27.1668 N   0  0  0  0  0  0  0  0  0  0  0  0
   -8.5771  -21.7685   30.9550 O   0  0  0  0  0  0  0  0  0  0  0  0
   -9.3810  -19.0328   30.9610 O   0  0  0  0  0  0  0  0  0  0  0  0
   -9.8832  -13.2332   30.6814 O   0  0  0  0  0  0  0  0  0  0  0  0
  -10.5600  -12.2244   26.7963 O   0  0  0  0  0  0  0  0  0  0  0  0
  3  4  1  0
  1  4  1  0
  4  5  2  0
  1  6  1  0
  6  7  2  0
  2 10  1  0
 12 14  1  0
  5 18  1  0
  8 19  2  0
  7 19  1  0
  9 20  2  0
 11 20  1  0
  9 21  1  0
 10 21  2  0
 10 22  1  0
 11 22  2  0
  2 23  1  0
 24 13  1  6
 12 24  1  0
 14 24  1  0
 23 24  1  0
 18 25  2  0
 17 26  1  0
 15 26  2  0
 16 27  2  0
 15 27  1  0
 16 28  1  0
 17 28  2  0
 25 29  1  0
  3 29  2  0
  8 30  1  0
 11 31  1  0
 16 32  1  0
  6 33  1  0
 30 33  2  0
 26 34  1  0
 13 34  1  0
  5 35  1  0
  7 35  1  0
 20 36  1  0
 19 36  1  0
 23 37  2  0
 13 38  2  0
M  END
$$$$
