
     RDKit          3D

 35 37  0  0  0  0  0  0  0  0999 V2000
  -10.1921  -17.8849   29.1828 O   0  0  0  0  0  0  0  0  0  0  0  0
  -11.4220  -17.8017   28.1630 P   0  0  2  0  0  5  0  0  0  0  0  0
  -11.2458  -18.7101   26.9902 O   0  0  0  0  0  0  0  0  0  0  0  0
  -11.5574  -16.2448   27.8470 O   0  0  0  0  0  0  0  0  0  0  0  0
  -11.2987  -15.3649   28.9213 C   0  0  2  0  0  0  0  0  0  0  0  0
  -12.0708  -14.0461   28.7494 C   0  0  2  0  0  0  0  0  0  0  0  0
  -13.4747  -14.2596   28.5955 O   0  0  0  0  0  0  0  0  0  0  0  0
  -11.5275  -13.2823   27.5443 C   0  0  1  0  0  0  0  0  0  0  0  0
  -12.1984  -12.0117   27.4593 O   0  0  0  0  0  0  0  0  0  0  0  0
  -10.0072  -13.0717   27.6921 C   0  0  2  0  0  0  0  0  0  0  0  0
   -9.5269  -12.2817   26.5437 N   0  0  0  0  0  0  0  0  0  0  0  0
   -9.3234  -14.4411   27.9011 C   0  0  1  0  0  0  0  0  0  0  0  0
   -7.8315  -14.3053   28.1941 C   0  0  0  0  0  0  0  0  0  0  0  0
   -9.8955  -15.1187   29.0310 O   0  0  0  0  0  0  0  0  0  0  0  0
  -12.6699  -18.1393   29.0861 O   0  0  0  0  0  0  0  0  0  0  0  0
  -14.1172  -18.1991   28.4376 P   0  0  1  0  0  5  0  0  0  0  0  0
  -14.9823  -18.9305   29.5702 O   0  0  0  0  0  0  0  0  0  0  0  0
  -14.7129  -16.9001   28.0061 O   0  0  0  0  0  0  0  0  0  0  0  0
  -14.0035  -19.3222   27.2985 O   0  0  0  0  0  0  0  0  0  0  0  0
  -13.7888  -20.6544   27.7229 C   0  0  0  0  0  0  0  0  0  0  0  0
  -14.7389  -21.6458   27.0507 C   0  0  1  0  0  0  0  0  0  0  0  0
  -13.9481  -22.7208   26.5006 O   0  0  0  0  0  0  0  0  0  0  0  0
  -15.7858  -22.3011   27.9488 C   0  0  1  0  0  0  0  0  0  0  0  0
  -16.9889  -21.5594   28.0400 O   0  0  0  0  0  0  0  0  0  0  0  0
  -16.0556  -23.5926   27.2098 C   0  0  0  0  0  0  0  0  0  0  0  0
  -14.7056  -23.9404   26.6040 C   0  0  2  0  0  0  0  0  0  0  0  0
  -13.9686  -24.9385   27.3818 N   0  0  0  0  0  0  0  0  0  0  0  0
  -13.3498  -24.6206   28.5746 C   0  0  0  0  0  0  0  0  0  0  0  0
  -12.7140  -25.5276   29.3268 C   0  0  0  0  0  0  0  0  0  0  0  0
  -12.0451  -25.2272   30.6279 C   0  0  0  0  0  0  0  0  0  0  0  0
  -13.9967  -26.2453   26.9113 C   0  0  0  0  0  0  0  0  0  0  0  0
  -14.6036  -26.6025   25.9045 O   0  0  0  0  0  0  0  0  0  0  0  0
  -13.3109  -27.1636   27.6606 N   0  0  0  0  0  0  0  0  0  0  0  0
  -12.6897  -26.9288   28.8508 C   0  0  0  0  0  0  0  0  0  0  0  0
  -12.1610  -27.8266   29.5019 O   0  0  0  0  0  0  0  0  0  0  0  0
  2  1  1  1
  2  3  2  0
  2  4  1  0
  5  4  1  6
  5  6  1  0
  6  7  1  6
  6  8  1  0
  8  9  1  1
  8 10  1  0
 10 11  1  6
 10 12  1  0
 12 13  1  1
 12 14  1  0
  5 14  1  0
  2 15  1  0
 16 15  1  0
 16 17  1  1
 16 18  2  0
 16 19  1  0
 19 20  1  0
 21 20  1  1
 21 22  1  0
 21 23  1  0
 23 24  1  6
 23 25  1  0
 25 26  1  0
 22 26  1  0
 26 27  1  1
 27 28  4  0
 28 29  4  0
 29 30  1  0
 27 31  4  0
 31 32  2  0
 31 33  4  0
 33 34  4  0
 29 34  4  0
 34 35  2  0
M  END
