1SJ0_E4D_A_600
     RDKit          3D

 62 66  0  0  0  0  0  0  0  0999 V2000
   -3.0516    0.5962    1.2288 C   0  0  2  0  0  0  0  0  0  0  0  0
   -1.7105    0.3637    1.9491 C   0  0  1  0  0  0  0  0  0  0  0  0
   -1.8757   -0.4241    3.1229 O   0  0  0  0  0  0  0  0  0  0  0  0
   -2.8496   -0.1808    4.0942 C   0  0  0  0  0  0  0  0  0  0  0  0
   -2.7416   -0.8483    5.3197 C   0  0  0  0  0  0  0  0  0  0  0  0
   -3.7193   -0.6872    6.3034 C   0  0  0  0  0  0  0  0  0  0  0  0
   -4.8223    0.1358    6.0668 C   0  0  0  0  0  0  0  0  0  0  0  0
   -5.7963    0.2805    7.0520 O   0  0  0  0  0  0  0  0  0  0  0  0
   -4.9399    0.8050    4.8418 C   0  0  0  0  0  0  0  0  0  0  0  0
   -3.9554    0.6635    3.8543 C   0  0  0  0  0  0  0  0  0  0  0  0
   -4.2013    1.5414    2.2957 S   0  0  0  0  0  0  0  0  0  0  0  0
   -3.6673   -0.6611    0.6277 C   0  0  0  0  0  0  0  0  0  0  0  0
   -4.4059   -1.5850    1.3934 C   0  0  0  0  0  0  0  0  0  0  0  0
   -4.9069   -2.7525    0.8101 C   0  0  0  0  0  0  0  0  0  0  0  0
   -4.6729   -3.0219   -0.5432 C   0  0  0  0  0  0  0  0  0  0  0  0
   -5.1652   -4.1841   -1.1324 O   0  0  0  0  0  0  0  0  0  0  0  0
   -3.9364   -2.1174   -1.3106 C   0  0  0  0  0  0  0  0  0  0  0  0
   -3.4359   -0.9484   -0.7318 C   0  0  0  0  0  0  0  0  0  0  0  0
   -0.6881   -0.2710    1.0311 C   0  0  0  0  0  0  0  0  0  0  0  0
    0.0989    0.5383    0.1968 C   0  0  0  0  0  0  0  0  0  0  0  0
    1.0059   -0.0353   -0.6987 C   0  0  0  0  0  0  0  0  0  0  0  0
    1.1355   -1.4349   -0.7808 C   0  0  0  0  0  0  0  0  0  0  0  0
    0.3387   -2.2406    0.0399 C   0  0  0  0  0  0  0  0  0  0  0  0
   -0.5678   -1.6686    0.9357 C   0  0  0  0  0  0  0  0  0  0  0  0
    2.0267   -2.0670   -1.6638 O   0  0  0  0  0  0  0  0  0  0  0  0
    2.9698   -1.4063   -2.5078 C   0  0  0  0  0  0  0  0  0  0  0  0
    4.1813   -0.9255   -1.6843 C   0  0  0  0  0  0  0  0  0  0  0  0
    5.1560   -0.1276   -2.4591 N   0  0  0  0  0  0  0  0  0  0  0  0
    5.9259   -0.9237   -3.4412 C   0  0  0  0  0  0  0  0  0  0  0  0
    6.7992   -0.0144   -4.3098 C   0  0  0  0  0  0  0  0  0  0  0  0
    5.9440    0.9803   -5.1175 C   0  0  0  0  0  0  0  0  0  0  0  0
    4.5658    1.2411   -4.4846 C   0  0  0  0  0  0  0  0  0  0  0  0
    4.6325    1.1722   -2.9524 C   0  0  0  0  0  0  0  0  0  0  0  0
   -2.8390    1.2986    0.3923 H   0  0  0  0  0  0  0  0  0  0  0  0
   -1.3194    1.3554    2.2710 H   0  0  0  0  0  0  0  0  0  0  0  0
   -1.8993   -1.5025    5.5059 H   0  0  0  0  0  0  0  0  0  0  0  0
   -3.6242   -1.2098    7.2467 H   0  0  0  0  0  0  0  0  0  0  0  0
   -6.6087    0.8695    6.9110 H   0  0  0  0  0  0  0  0  0  0  0  0
   -5.7983    1.4394    4.6587 H   0  0  0  0  0  0  0  0  0  0  0  0
   -4.6056   -1.4191    2.4384 H   0  0  0  0  0  0  0  0  0  0  0  0
   -5.4747   -3.4496    1.4132 H   0  0  0  0  0  0  0  0  0  0  0  0
   -5.7023   -4.8601   -0.6019 H   0  0  0  0  0  0  0  0  0  0  0  0
   -3.7464   -2.3229   -2.3564 H   0  0  0  0  0  0  0  0  0  0  0  0
   -2.8534   -0.2717   -1.3449 H   0  0  0  0  0  0  0  0  0  0  0  0
    0.0042    1.6166    0.2338 H   0  0  0  0  0  0  0  0  0  0  0  0
    1.5923    0.6211   -1.3244 H   0  0  0  0  0  0  0  0  0  0  0  0
    0.4190   -3.3186   -0.0212 H   0  0  0  0  0  0  0  0  0  0  0  0
   -1.1853   -2.3182    1.5434 H   0  0  0  0  0  0  0  0  0  0  0  0
    3.3061   -2.1443   -3.2626 H   0  0  0  0  0  0  0  0  0  0  0  0
    2.4763   -0.5790   -3.0569 H   0  0  0  0  0  0  0  0  0  0  0  0
    3.8309   -0.3201   -0.8215 H   0  0  0  0  0  0  0  0  0  0  0  0
    4.6920   -1.8120   -1.2486 H   0  0  0  0  0  0  0  0  0  0  0  0
    6.5824   -1.6385   -2.8995 H   0  0  0  0  0  0  0  0  0  0  0  0
    5.2567   -1.5069   -4.1078 H   0  0  0  0  0  0  0  0  0  0  0  0
    7.4967    0.5469   -3.6496 H   0  0  0  0  0  0  0  0  0  0  0  0
    7.4112   -0.6319   -5.0024 H   0  0  0  0  0  0  0  0  0  0  0  0
    5.7933    0.5894   -6.1474 H   0  0  0  0  0  0  0  0  0  0  0  0
    6.4975    1.9408   -5.2054 H   0  0  0  0  0  0  0  0  0  0  0  0
    4.1946    2.2404   -4.7987 H   0  0  0  0  0  0  0  0  0  0  0  0
    3.8404    0.4826   -4.8508 H   0  0  0  0  0  0  0  0  0  0  0  0
    5.3098    1.9769   -2.5936 H   0  0  0  0  0  0  0  0  0  0  0  0
    3.6303    1.4042   -2.5317 H   0  0  0  0  0  0  0  0  0  0  0  0
  1  2  1  0
  2  3  1  0
  3  4  1  0
  4  5  2  0
  5  6  1  0
  6  7  2  0
  7  8  1  0
  7  9  1  0
  4 10  1  0
  9 10  2  0
  1 11  1  0
 10 11  1  0
  1 12  1  0
 12 13  2  0
 13 14  1  0
 14 15  2  0
 15 16  1  0
 15 17  1  0
 12 18  1  0
 17 18  2  0
  2 19  1  0
 19 20  2  0
 20 21  1  0
 21 22  2  0
 22 23  1  0
 19 24  1  0
 23 24  2  0
 22 25  1  0
 25 26  1  0
 26 27  1  0
 27 28  1  0
 28 29  1  0
 29 30  1  0
 30 31  1  0
 31 32  1  0
 28 33  1  0
 32 33  1  0
  1 34  1  6
  2 35  1  1
  5 36  1  0
  6 37  1  0
  8 38  1  0
  9 39  1  0
 13 40  1  0
 14 41  1  0
 16 42  1  0
 17 43  1  0
 18 44  1  0
 20 45  1  0
 21 46  1  0
 23 47  1  0
 24 48  1  0
 26 49  1  0
 26 50  1  0
 27 51  1  0
 27 52  1  0
 29 53  1  0
 29 54  1  0
 30 55  1  0
 30 56  1  0
 31 57  1  0
 31 58  1  0
 32 59  1  0
 32 60  1  0
 33 61  1  0
 33 62  1  0
M  END
