@<TRIPOS>MOLECULE
1SJ0_E4D_A_600
 62 66 0 0 0
SMALL
GASTEIGER

@<TRIPOS>ATOM
      1 C          31.1720   -0.2380   28.7070 C.3     1  UNL1        0.0760
      2 C          31.2760   -1.6690   28.1770 C.3     1  UNL1        0.1412
      3 O          30.0500   -2.3690   28.4310 O.3     1  UNL1       -0.4817
      4 C          28.8610   -1.9480   27.9670 C.ar    1  UNL1        0.1350
      5 C          27.9320   -2.9010   27.5800 C.ar    1  UNL1       -0.0154
      6 C          26.7240   -2.5350   27.0030 C.ar    1  UNL1       -0.0167
      7 C          26.3460   -1.1830   27.0310 C.ar    1  UNL1        0.1181
      8 O          25.1280   -0.8570   26.5840 O.3     1  UNL1       -0.5067
      9 C          27.2840   -0.2150   27.4260 C.ar    1  UNL1       -0.0032
     10 C          28.5550   -0.5630   27.8540 C.ar    1  UNL1        0.0537
     11 S          29.6080    0.4570   28.1910 S.3     1  UNL1       -0.1094
     12 C          32.4700    0.4800   28.4200 C.ar    1  UNL1       -0.0301
     13 C          32.6800    1.3800   27.3730 C.ar    1  UNL1       -0.0539
     14 C          33.9320    1.9870   27.2050 C.ar    1  UNL1       -0.0199
     15 C          34.9760    1.6980   28.0990 C.ar    1  UNL1        0.1169
     16 O          36.1910    2.2510   27.9230 O.3     1  UNL1       -0.5068
     17 C          34.7830    0.7840   29.1430 C.ar    1  UNL1       -0.0199
     18 C          33.5190    0.2030   29.3110 C.ar    1  UNL1       -0.0539
     19 C          31.6300   -1.8400   26.7020 C.ar    1  UNL1       -0.0057
     20 C          32.6480   -2.7670   26.4480 C.ar    1  UNL1       -0.0516
     21 C          33.0730   -3.0500   25.1480 C.ar    1  UNL1       -0.0196
     22 C          32.4960   -2.3520   24.0600 C.ar    1  UNL1        0.1206
     23 C          31.4550   -1.4710   24.2950 C.ar    1  UNL1       -0.0196
     24 C          31.0470   -1.1710   25.6230 C.ar    1  UNL1       -0.0516
     25 O          32.9110   -2.5720   22.7850 O.3     1  UNL1       -0.4907
     26 C          34.0020   -3.4000   22.3460 C.3     1  UNL1        0.1022
     27 C          33.6550   -4.3840   21.2060 C.3     1  UNL1        0.0331
     28 N          32.8000   -4.0120   20.0540 N.3     1  UNL1       -0.2991
     29 C          31.5970   -3.2410   20.3190 C.3     1  UNL1       -0.0010
     30 C          30.5570   -3.2640   19.1770 C.3     1  UNL1       -0.0402
     31 C          31.1870   -2.9120   17.8130 C.3     1  UNL1       -0.0507
     32 C          32.4130   -3.8420   17.6170 C.3     1  UNL1       -0.0402
     33 C          33.4340   -3.6740   18.7760 C.3     1  UNL1       -0.0010
     34 H          31.1047   -0.1457   29.7709 H       1  UNL1        0.0504
     35 H          32.1098   -2.0741   28.7114 H       1  UNL1        0.0799
     36 H          28.1424   -3.9011   27.7235 H       1  UNL1        0.0656
     37 H          26.1156   -3.2425   26.5621 H       1  UNL1        0.0655
     38 H          24.5272   -1.5292   26.3288 H       1  UNL1        0.2921
     39 H          27.0194    0.7821   27.3966 H       1  UNL1        0.0666
     40 H          31.9107    1.5988   26.7208 H       1  UNL1        0.0622
     41 H          34.0866    2.6454   26.4255 H       1  UNL1        0.0654
     42 H          36.3307    2.8634   27.2278 H       1  UNL1        0.2921
     43 H          35.5595    0.5424   29.7783 H       1  UNL1        0.0654
     44 H          33.3565   -0.4389   30.1025 H       1  UNL1        0.0622
     45 H          33.0953   -3.2531   27.2408 H       1  UNL1        0.0623
     46 H          33.8015   -3.7619   24.9820 H       1  UNL1        0.0654
     47 H          30.9706   -1.0278   23.4988 H       1  UNL1        0.0654
     48 H          30.3195   -0.4584   25.7903 H       1  UNL1        0.0623
     49 H          34.3447   -3.9700   23.1842 H       1  UNL1        0.0709
     50 H          34.7434   -2.7358   21.9535 H       1  UNL1        0.0709
     51 H          33.1751   -5.2189   21.6724 H       1  UNL1        0.0460
     52 H          34.6071   -4.5118   20.7348 H       1  UNL1        0.0460
     53 H          31.8827   -2.2242   20.4904 H       1  UNL1        0.0427
     54 H          31.1271   -3.6923   21.1678 H       1  UNL1        0.0427
     55 H          29.7880   -2.5530   19.3959 H       1  UNL1        0.0278
     56 H          30.1606   -4.2557   19.1115 H       1  UNL1        0.0278
     57 H          31.4992   -1.8886   17.8071 H       1  UNL1        0.0266
     58 H          30.4787   -3.0474   17.0225 H       1  UNL1        0.0266
     59 H          32.8918   -3.5986   16.6916 H       1  UNL1        0.0278
     60 H          32.0721   -4.8562   17.6089 H       1  UNL1        0.0278
     61 H          34.2678   -4.3239   18.6110 H       1  UNL1        0.0427
     62 H          33.7673   -2.6577   18.8066 H       1  UNL1        0.0427
@<TRIPOS>BOND
     1     1     2    1
     2     2     3    1
     3     3     4    1
     4     4     5   ar
     5     5     6   ar
     6     6     7   ar
     7     7     8    1
     8     7     9   ar
     9     4    10   ar
    10     9    10   ar
    11     1    11    1
    12    10    11    1
    13     1    12    1
    14    12    13   ar
    15    13    14   ar
    16    14    15   ar
    17    15    16    1
    18    15    17   ar
    19    12    18   ar
    20    17    18   ar
    21     2    19    1
    22    19    20   ar
    23    20    21   ar
    24    21    22   ar
    25    22    23   ar
    26    19    24   ar
    27    23    24   ar
    28    22    25    1
    29    25    26    1
    30    26    27    1
    31    27    28    1
    32    28    29    1
    33    29    30    1
    34    30    31    1
    35    31    32    1
    36    28    33    1
    37    32    33    1
    38     1    34    1
    39     2    35    1
    40     5    36    1
    41     6    37    1
    42     8    38    1
    43     9    39    1
    44    13    40    1
    45    14    41    1
    46    16    42    1
    47    17    43    1
    48    18    44    1
    49    20    45    1
    50    21    46    1
    51    23    47    1
    52    24    48    1
    53    26    49    1
    54    26    50    1
    55    27    51    1
    56    27    52    1
    57    29    53    1
    58    29    54    1
    59    30    55    1
    60    30    56    1
    61    31    57    1
    62    31    58    1
    63    32    59    1
    64    32    60    1
    65    33    61    1
    66    33    62    1
