6Z14_Q4Z_JJJ_1103
     RDKit          3D

 18 19  0  0  0  0  0  0  0  0999 V2000
   11.9574   10.6675   10.7096 O   0  0  0  0  0  0  0  0  0  0  0  0
   13.6515   12.3757   11.3529 O   0  0  0  0  0  0  0  0  0  0  0  0
   13.2265   10.9436   11.4685 S   0  0  1  0  0  6  0  0  0  0  0  0
   12.9290   10.5902   13.0851 O   0  0  0  0  0  0  0  0  0  0  0  0
   17.2376    7.7244   10.3108 C   0  0  1  0  0  0  0  0  0  0  0  0
   17.9167    7.9353    8.9557 C   0  0  1  0  0  0  0  0  0  0  0  0
   17.5279    9.2715    8.4420 C   0  0  2  0  0  0  0  0  0  0  0  0
   16.3649    9.8328    9.2704 C   0  0  1  0  0  0  0  0  0  0  0  0
   16.7615    9.8936   10.7109 C   0  0  1  0  0  0  0  0  0  0  0  0
   15.5449    9.8738   11.6381 C   0  0  0  0  0  0  0  0  0  0  0  0
   19.3794    7.0961   10.4589 C   0  0  0  0  0  0  0  0  0  0  0  0
   20.6606    6.7882   11.1722 C   0  0  0  0  0  0  0  0  0  0  0  0
   19.2949    7.8276    9.4072 N   0  0  0  0  0  0  0  0  0  0  0  0
   18.0927    6.6757   10.7734 O   0  0  0  0  0  0  0  0  0  0  0  0
   17.1020    9.1488    7.1165 O   0  0  0  0  0  0  0  0  0  0  0  0
   16.0767   11.0824    8.7638 O   0  0  0  0  0  0  0  0  0  0  0  0
   17.5611    8.8321   11.0842 O   0  0  0  0  0  0  0  0  0  0  0  0
   14.3805    9.8732   10.9101 O   0  0  0  0  0  0  0  0  0  0  0  0
  2  3  2  0
  1  3  2  0
  3  4  1  1
  5  6  1  0
  6  7  1  0
  7  8  1  0
  8  9  1  0
  9 10  1  0
 12 11  1  1
  6 13  1  1
 11 13  2  0
 11 14  1  0
  5 14  1  1
  7 15  1  6
  8 16  1  6
  9 17  1  1
  5 17  1  0
 10 18  1  1
  3 18  1  0
M  CHG  2   4  -1  13   1
M  END
$$$$
