
     RDKit          3D

 10  9  0  0  0  0  0  0  0  0999 V2000
  129.1150   81.2734   -4.0664 C   0  0  0  0  0  0  0  0  0  0  0  0
  129.0998   81.7178   -2.9377 O   0  0  0  0  0  0  0  0  0  0  0  0
  129.2072   79.9676   -4.3403 O   0  0  0  0  0  0  0  0  0  0  0  0
  129.0313   82.1198   -5.3329 C   0  0  0  0  0  0  0  0  0  0  0  0
  128.0170   82.0880   -6.0173 O   0  0  0  0  0  0  0  0  0  0  0  0
  130.2409   82.9791   -5.6113 C   0  0  0  0  0  0  0  0  0  0  0  0
  130.4327   83.2275   -7.1037 C   0  0  0  0  0  0  0  0  0  0  0  0
  130.3180   84.6721   -7.5151 C   0  0  0  0  0  0  0  0  0  0  0  0
  129.4403   85.1338   -8.2266 O   0  0  0  0  0  0  0  0  0  0  0  0
  131.2444   85.4821   -6.9740 O   0  0  0  0  0  0  0  0  0  0  0  0
  1  2  2  0
  1  3  1  0
  1  4  1  0
  4  5  2  0
  4  6  1  0
  6  7  1  0
  7  8  1  0
  8  9  2  0
  8 10  1  0
M  END
