7BKA_4JC_E_201
     RDKit          3D

 12 12  0  0  0  0  0  0  0  0999 V2000
   34.6132    6.0996   22.2177 O   0  0  0  0  0  0  0  0  0  0  0  0
   34.8757    6.5097   23.6377 S   0  0  1  0  0  6  0  0  0  0  0  0
   33.6738    6.2087   24.4818 O   0  0  0  0  0  0  0  0  0  0  0  0
   36.2052    5.5957   24.2035 N   0  0  0  0  0  0  0  0  0  0  0  0
   35.1725    8.2432   23.7054 C   0  0  0  0  0  0  0  0  0  0  0  0
   35.9682    8.8804   22.7817 C   0  0  0  0  0  0  0  0  0  0  0  0
   36.1871   10.2399   22.8539 C   0  0  0  0  0  0  0  0  0  0  0  0
   34.5626    8.9471   24.7418 C   0  0  0  0  0  0  0  0  0  0  0  0
   34.7830   10.2895   24.8072 C   0  0  0  0  0  0  0  0  0  0  0  0
   35.5818   10.9360   23.8818 C   0  0  0  0  0  0  0  0  0  0  0  0
   35.7740   12.4064   24.0215 C   0  0  0  0  0  0  0  0  0  0  0  0
   37.1070   12.6846   24.6562 C   0  0  0  0  0  0  0  0  0  0  0  0
  1  2  2  0
  2  3  2  0
  2  4  1  1
  2  5  1  0
  5  6  2  0
  6  7  1  0
  5  8  1  0
  8  9  2  0
  7 10  2  0
  9 10  1  0
 11 10  1  6
 12 11  1  6
M  END
$$$$
