1P62_GEO_B_302
     RDKit          3D

 18 19  0  0  0  0  0  0  0  0999 V2000
   69.9852   38.0539   21.1947 O   0  0  0  0  0  0  0  0  0  0  0  0
   70.5790   36.9848   21.8831 C   0  0  0  0  0  0  0  0  0  0  0  0
   70.2023   35.6925   21.1901 C   0  0  1  0  0  0  0  0  0  0  0  0
   68.8660   35.6882   20.8004 O   0  0  0  0  0  0  0  0  0  0  0  0
   68.8523   34.6220   19.9097 C   0  0  1  0  0  0  0  0  0  0  0  0
   67.5999   34.3787   19.2774 N   0  0  0  0  0  0  0  0  0  0  0  0
   66.7456   35.4323   19.1273 C   0  0  0  0  0  0  0  0  0  0  0  0
   65.5075   35.2595   18.5179 C   0  0  0  0  0  0  0  0  0  0  0  0
   65.1478   34.0063   18.0635 C   0  0  0  0  0  0  0  0  0  0  0  0
   66.0047   32.9805   18.2212 N   0  0  0  0  0  0  0  0  0  0  0  0
   67.2143   33.1694   18.8213 C   0  0  0  0  0  0  0  0  0  0  0  0
   68.0125   32.1854   18.9617 O   0  0  0  0  0  0  0  0  0  0  0  0
   63.8671   33.8444   17.4371 N   0  0  0  0  0  0  0  0  0  0  0  0
   69.9695   35.0055   18.9673 C   0  0  2  0  0  0  0  0  0  0  0  0
   69.6853   36.0723   18.1651 F   0  0  0  0  0  0  0  0  0  0  0  0
   70.4057   33.9448   18.1982 F   0  0  0  0  0  0  0  0  0  0  0  0
   71.0241   35.4813   19.9585 C   0  0  2  0  0  0  0  0  0  0  0  0
   71.8719   34.3875   20.2084 O   0  0  0  0  0  0  0  0  0  0  0  0
  2  1  1  6
  3  2  1  0
  3  4  1  6
  4  5  1  0
  5  6  1  6
  6  7  1  0
  7  8  2  0
  8  9  1  0
  9 10  2  0
  6 11  1  0
 10 11  1  0
 11 12  2  0
  9 13  1  0
  5 14  1  0
 14 15  1  6
 14 16  1  0
  3 17  1  0
 14 17  1  0
 17 18  1  1
M  END
$$$$
