7P5T_5YG_A_402
     RDKit          3D

 43 45  0  0  0  0  0  0  0  0999 V2000
   -7.8415    2.1312   -2.5848 C   0  0  0  0  0  0  0  0  0  0  0  0
   -5.1108    2.8789   -1.4424 C   0  0  0  0  0  0  0  0  0  0  0  0
   -3.9235    2.9319   -0.7059 C   0  0  0  0  0  0  0  0  0  0  0  0
   -3.0019    1.8751   -0.7677 C   0  0  0  0  0  0  0  0  0  0  0  0
   -1.7225    1.9248    0.0261 C   0  0  0  0  0  0  0  0  0  0  0  0
   -0.6102    1.3293   -2.2120 C   0  0  0  0  0  0  0  0  0  0  0  0
    0.2856   -0.1523   -3.9218 C   0  0  0  0  0  0  0  0  0  0  0  0
   -0.6285   -0.1573   -6.2727 C   0  0  0  0  0  0  0  0  0  0  0  0
   -1.7786   -1.0976   -6.5106 C   0  0  0  0  0  0  0  0  0  0  0  0
   -1.6380   -2.4699   -6.2557 C   0  0  0  0  0  0  0  0  0  0  0  0
   -2.7296   -3.3203   -6.4466 C   0  0  0  0  0  0  0  0  0  0  0  0
   -4.0881   -1.4907   -7.1113 C   0  0  0  0  0  0  0  0  0  0  0  0
   -3.0224   -0.6053   -6.9329 C   0  0  0  0  0  0  0  0  0  0  0  0
   -1.5434    1.8160   -3.1470 C   0  0  0  0  0  0  0  0  0  0  0  0
   -3.2759    0.7739   -1.5934 C   0  0  0  0  0  0  0  0  0  0  0  0
   -5.3896    1.7677   -2.2608 C   0  0  0  0  0  0  0  0  0  0  0  0
    0.2976    0.3367   -2.6127 C   0  0  0  0  0  0  0  0  0  0  0  0
   -0.6460    0.3340   -4.8507 C   0  0  0  0  0  0  0  0  0  0  0  0
   -1.5551    1.3263   -4.4560 C   0  0  0  0  0  0  0  0  0  0  0  0
   -4.4625    0.7215   -2.3299 C   0  0  0  0  0  0  0  0  0  0  0  0
   -0.5608    1.8215   -0.8587 N   0  0  0  0  0  0  0  0  0  0  0  0
   -3.9208   -2.8177   -6.8672 N   0  0  0  0  0  0  0  0  0  0  0  0
   -6.5669    1.6661   -3.0165 O   0  0  0  0  0  0  0  0  0  0  0  0
   -8.1465    1.6030   -1.6567 H   0  0  0  0  0  0  0  0  0  0  0  0
   -8.5908    1.9216   -3.3754 H   0  0  0  0  0  0  0  0  0  0  0  0
   -7.8083    3.2271   -2.4080 H   0  0  0  0  0  0  0  0  0  0  0  0
   -5.8034    3.7061   -1.3689 H   0  0  0  0  0  0  0  0  0  0  0  0
   -3.7269    3.7968   -0.0845 H   0  0  0  0  0  0  0  0  0  0  0  0
   -1.6855    2.8957    0.5660 H   0  0  0  0  0  0  0  0  0  0  0  0
   -1.6794    1.1272    0.7985 H   0  0  0  0  0  0  0  0  0  0  0  0
    1.0060   -0.9070   -4.2124 H   0  0  0  0  0  0  0  0  0  0  0  0
   -0.6865    0.7028   -6.9756 H   0  0  0  0  0  0  0  0  0  0  0  0
    0.3349   -0.6698   -6.4880 H   0  0  0  0  0  0  0  0  0  0  0  0
   -0.6949   -2.8757   -5.9114 H   0  0  0  0  0  0  0  0  0  0  0  0
   -2.6305   -4.3807   -6.2566 H   0  0  0  0  0  0  0  0  0  0  0  0
   -5.0502   -1.1217   -7.4405 H   0  0  0  0  0  0  0  0  0  0  0  0
   -3.1653    0.4518   -7.1197 H   0  0  0  0  0  0  0  0  0  0  0  0
   -2.2675    2.5698   -2.8756 H   0  0  0  0  0  0  0  0  0  0  0  0
   -2.5720   -0.0464   -1.6624 H   0  0  0  0  0  0  0  0  0  0  0  0
    1.0257   -0.0510   -1.9113 H   0  0  0  0  0  0  0  0  0  0  0  0
   -2.2734    1.7227   -5.1632 H   0  0  0  0  0  0  0  0  0  0  0  0
   -4.6632   -0.1370   -2.9582 H   0  0  0  0  0  0  0  0  0  0  0  0
    0.3487    2.1869   -0.4947 H   0  0  0  0  0  0  0  0  0  0  0  0
  2  3  4  0
  3  4  4  0
  4  5  1  0
  8  9  1  0
  9 10  4  0
 10 11  4  0
 12 13  4  0
  9 13  4  0
  6 14  4  0
  4 15  4  0
  2 16  4  0
  7 17  4  0
  6 17  4  0
  8 18  1  0
  7 18  4  0
 18 19  4  0
 14 19  4  0
 15 20  4  0
 16 20  4  0
  6 21  1  0
  5 21  1  0
 11 22  4  0
 12 22  4  0
 16 23  1  0
  1 23  1  0
  1 24  1  0
  1 25  1  0
  1 26  1  0
  2 27  1  0
  3 28  1  0
  5 29  1  0
  5 30  1  0
  7 31  1  0
  8 32  1  0
  8 33  1  0
 10 34  1  0
 11 35  1  0
 12 36  1  0
 13 37  1  0
 14 38  1  0
 15 39  1  0
 17 40  1  0
 19 41  1  0
 20 42  1  0
 21 43  1  0
M  END
