7LB3_XXS_A_1701
     RDKit          3D

 29 33  0  0  0  0  0  0  0  0999 V2000
   20.9878   22.5219   62.4913 C   0  0  2  0  0  0  0  0  0  0  0  0
   23.3759   23.7293   63.6336 C   0  0  0  0  0  0  0  0  0  0  0  0
   20.6134   21.6177   61.3388 C   0  0  0  0  0  0  0  0  0  0  0  0
   19.3494   19.7035   65.0350 C   0  0  0  0  0  0  0  0  0  0  0  0
   16.0474   17.9804   65.5511 C   0  0  0  0  0  0  0  0  0  0  0  0
   15.1435   18.8530   64.9892 C   0  0  0  0  0  0  0  0  0  0  0  0
   15.6423   20.0147   64.4395 C   0  0  0  0  0  0  0  0  0  0  0  0
   17.1223   21.5127   63.8278 C   0  0  0  0  0  0  0  0  0  0  0  0
   21.5161   16.1071   65.1681 C   0  0  0  0  0  0  0  0  0  0  0  0
   22.2068   18.3290   66.9721 C   0  0  1  0  0  0  0  0  0  0  0  0
   23.5298   18.9651   67.3836 C   0  0  0  0  0  0  0  0  0  0  0  0
   22.4119   18.7973   68.3493 C   0  0  0  0  0  0  0  0  0  0  0  0
   21.4248   19.1485   66.0076 C   0  0  0  0  0  0  0  0  0  0  0  0
   22.0063   20.1022   65.1888 C   0  0  0  0  0  0  0  0  0  0  0  0
   21.2737   20.8563   64.2962 C   0  0  0  0  0  0  0  0  0  0  0  0
   21.7238   23.7539   62.0264 C   0  0  0  0  0  0  0  0  0  0  0  0
   23.2371   22.2238   63.4675 C   0  0  0  0  0  0  0  0  0  0  0  0
   17.9197   19.4305   65.0106 C   0  0  0  0  0  0  0  0  0  0  0  0
   17.3861   18.2591   65.5612 C   0  0  0  0  0  0  0  0  0  0  0  0
   16.9963   20.2915   64.4524 C   0  0  0  0  0  0  0  0  0  0  0  0
   21.4891   15.8611   67.8457 N   0  0  0  0  0  0  0  0  0  0  0  0
   21.8427   21.8418   63.4478 N   0  0  0  0  0  0  0  0  0  0  0  0
   19.9495   20.6197   64.2566 N   0  0  0  0  0  0  0  0  0  0  0  0
   15.9086   21.9269   63.4694 N   0  0  0  0  0  0  0  0  0  0  0  0
   15.0003   21.0306   63.8327 N   0  0  0  0  0  0  0  0  0  0  0  0
   20.0953   18.9832   65.8971 N   0  0  0  0  0  0  0  0  0  0  0  0
   22.2608   24.3944   63.1271 O   0  0  0  0  0  0  0  0  0  0  0  0
   23.6874   16.0757   66.8008 O   0  0  0  0  0  0  0  0  0  0  0  0
   22.2672   16.5764   66.7062 S   0  0  1  0  0  6  0  0  0  0  0  0
  3  1  1  1
  5  6  2  0
  6  7  1  0
 11 10  1  1
 12 11  1  6
 10 12  1  0
 10 13  1  6
 13 14  2  0
 14 15  1  0
  1 16  1  0
  2 17  1  0
  4 18  1  0
 18 19  2  0
  5 19  1  0
  8 20  1  0
 18 20  1  0
  7 20  2  0
 17 22  1  1
  1 22  1  1
 15 22  1  0
 15 23  2  0
  4 23  1  0
  8 24  2  0
 24 25  1  0
  7 25  1  0
 13 26  1  0
  4 26  2  0
  2 27  1  6
 16 27  1  1
 10 29  1  0
 29  9  1  6
 21 29  2  0
 28 29  2  0
M  END
$$$$
