1HNN_SKF_A_3001
     RDKit          3D

 26 27  0  0  0  0  0  0  0  0999 V2000
   -0.3012    1.1295   -1.2894 C   0  0  0  0  0  0  0  0  0  0  0  0
   -0.0085    1.8131   -0.1072 C   0  0  0  0  0  0  0  0  0  0  0  0
    0.1210    1.1133    1.0984 C   0  0  0  0  0  0  0  0  0  0  0  0
   -0.0363   -0.2785    1.1124 C   0  0  0  0  0  0  0  0  0  0  0  0
    0.5169    1.9729    2.5836 S   0  0  0  0  0  6  0  0  0  0  0  0
   -0.3458   -0.9718   -0.0679 C   0  0  0  0  0  0  0  0  0  0  0  0
   -0.4556   -0.2646   -1.2837 C   0  0  0  0  0  0  0  0  0  0  0  0
   -0.0165    3.3766    2.5183 O   0  0  0  0  0  0  0  0  0  0  0  0
   -0.1102    1.2744    3.7574 O   0  0  0  0  0  0  0  0  0  0  0  0
    2.2326    2.0178    2.7883 N   0  0  0  0  0  0  0  0  0  0  0  0
   -0.4517   -2.4791   -0.0402 C   0  0  0  0  0  0  0  0  0  0  0  0
   -0.6121   -2.4884   -2.4522 C   0  0  0  0  0  0  0  0  0  0  0  0
   -0.8251   -0.9736   -2.5605 C   0  0  0  0  0  0  0  0  0  0  0  0
   -1.1782   -3.0099   -1.2022 N   0  0  0  0  0  0  0  0  0  0  0  0
   -0.4069    1.6872   -2.2119 H   0  0  0  0  0  0  0  0  0  0  0  0
    0.1191    2.8878   -0.1337 H   0  0  0  0  0  0  0  0  0  0  0  0
    0.0864   -0.8242    2.0401 H   0  0  0  0  0  0  0  0  0  0  0  0
    2.6297    2.4693    1.9340 H   0  0  0  0  0  0  0  0  0  0  0  0
    2.5657    1.0277    2.7877 H   0  0  0  0  0  0  0  0  0  0  0  0
    0.5710   -2.9139   -0.0130 H   0  0  0  0  0  0  0  0  0  0  0  0
   -0.9755   -2.8008    0.8864 H   0  0  0  0  0  0  0  0  0  0  0  0
   -1.1047   -2.9891   -3.3131 H   0  0  0  0  0  0  0  0  0  0  0  0
    0.4743   -2.7245   -2.5068 H   0  0  0  0  0  0  0  0  0  0  0  0
   -1.8950   -0.7697   -2.7820 H   0  0  0  0  0  0  0  0  0  0  0  0
   -0.2150   -0.5824   -3.4035 H   0  0  0  0  0  0  0  0  0  0  0  0
   -2.1836   -2.7228   -1.1345 H   0  0  0  0  0  0  0  0  0  0  0  0
  1  2  2  0
  2  3  1  0
  3  4  2  0
  3  5  1  0
  4  6  1  0
  1  7  1  0
  6  7  2  0
  5  8  2  0
  5  9  2  0
  5 10  1  0
  6 11  1  0
  7 13  1  0
 12 13  1  0
 11 14  1  0
 12 14  1  0
  1 15  1  0
  2 16  1  0
  4 17  1  0
 10 18  1  0
 10 19  1  0
 11 20  1  0
 11 21  1  0
 12 22  1  0
 12 23  1  0
 13 24  1  0
 13 25  1  0
 14 26  1  0
M  END
