7LMO_NYO_B_501
     RDKit          3D

 37 41  0  0  0  0  0  0  0  0999 V2000
   -2.3579  -22.2942   24.9407 C   0  0  0  0  0  0  0  0  0  0  0  0
   -3.2588  -23.2962   24.6071 C   0  0  0  0  0  0  0  0  0  0  0  0
   -4.1068  -23.8330   25.5558 C   0  0  0  0  0  0  0  0  0  0  0  0
   -5.4562  -21.9735   31.6215 N   0  0  0  0  0  0  0  0  0  0  0  0
   -2.2830  -14.4507   32.0039 N   0  0  0  0  0  0  0  0  0  0  0  0
   -1.7315  -21.9591   22.5594 C   0  0  0  0  0  0  0  0  0  0  0  0
   -3.7147  -21.8555   30.5729 O   0  0  0  0  0  0  0  0  0  0  0  0
   -3.8282  -22.4172   29.5046 C   0  0  0  0  0  0  0  0  0  0  0  0
   -3.0455  -21.9379   28.4725 O   0  0  0  0  0  0  0  0  0  0  0  0
   -3.1608  -22.4126   27.1979 C   0  0  0  0  0  0  0  0  0  0  0  0
   -2.3233  -21.8535   26.2642 C   0  0  0  0  0  0  0  0  0  0  0  0
   -1.5568  -21.6875   23.9639 N   0  0  0  0  0  0  0  0  0  0  0  0
   -2.1252  -20.7548   21.8022 C   0  0  0  0  0  0  0  0  0  0  0  0
   -0.5891  -20.6303   24.3174 C   0  0  0  0  0  0  0  0  0  0  0  0
   -0.0341  -20.1481   23.0604 C   0  0  0  0  0  0  0  0  0  0  0  0
   -4.7603  -23.5032   29.2143 C   0  0  0  0  0  0  0  0  0  0  0  0
   -4.9046  -23.9802   27.9423 C   0  0  0  0  0  0  0  0  0  0  0  0
   -5.8841  -25.0548   27.5828 C   0  0  0  0  0  0  0  0  0  0  0  0
   -4.0712  -23.4116   26.8798 C   0  0  0  0  0  0  0  0  0  0  0  0
   -5.3866  -24.1539   30.4306 C   0  0  0  0  0  0  0  0  0  0  0  0
   -6.1749  -23.2152   31.3358 C   0  0  0  0  0  0  0  0  0  0  0  0
   -5.9949  -20.6890   31.4254 C   0  0  0  0  0  0  0  0  0  0  0  0
   -7.1170  -20.4260   31.0153 O   0  0  0  0  0  0  0  0  0  0  0  0
   -5.0804  -19.8123   31.8315 N   0  0  0  0  0  0  0  0  0  0  0  0
   -3.8598  -20.4333   32.3249 C   0  0  2  0  0  0  0  0  0  0  0  0
   -4.2075  -21.8976   32.2062 C   0  0  0  0  0  0  0  0  0  0  0  0
   -3.4971  -22.8292   32.5453 O   0  0  0  0  0  0  0  0  0  0  0  0
   -3.5130  -20.0205   33.7695 C   0  0  0  0  0  0  0  0  0  0  0  0
   -2.6335  -18.7950   33.6191 C   0  0  0  0  0  0  0  0  0  0  0  0
   -2.1092  -18.9082   32.2580 N   0  0  0  0  0  0  0  0  0  0  0  0
   -2.6222  -20.0477   31.5136 C   0  0  0  0  0  0  0  0  0  0  0  0
   -1.2916  -18.0501   31.6479 C   0  0  0  0  0  0  0  0  0  0  0  0
   -0.3106  -18.4529   31.0066 O   0  0  0  0  0  0  0  0  0  0  0  0
   -1.6207  -16.5924   31.6948 C   0  0  0  0  0  0  0  0  0  0  0  0
   -0.9953  -15.7750   30.7826 N   0  0  0  0  0  0  0  0  0  0  0  0
   -1.4181  -14.5113   31.0076 C   0  0  0  0  0  0  0  0  0  0  0  0
   -2.4151  -15.7484   32.4274 C   0  0  0  0  0  0  0  0  0  0  0  0
  1  2  2  0
  2  3  1  0
  7  8  2  0
  8  9  1  0
  9 10  1  0
  1 11  1  0
 10 11  2  0
  6 12  1  0
  1 12  1  0
  6 13  1  0
 12 14  1  0
 14 15  1  0
  8 16  1  0
 16 17  2  0
 17 18  1  0
  3 19  2  0
 17 19  1  0
 10 19  1  0
 16 20  1  0
 20 21  1  0
  4 21  1  0
  4 22  1  0
 22 23  2  0
 22 24  1  0
 24 25  1  0
  4 26  1  0
 25 26  1  0
 26 27  2  0
 25 28  1  1
 28 29  1  0
 29 30  1  0
 25 31  1  0
 30 31  1  0
 30 32  1  0
 32 33  2  0
 32 34  1  0
 34 35  1  0
 35 36  2  0
  5 36  1  0
 34 37  2  0
  5 37  1  0
M  END
