1GPK_HUP_A_1540
     RDKit          3D

 18 20  0  0  0  0  0  0  0  0999 V2000
   -9.8406   82.8232   57.3163 C   0  0  0  0  0  0  0  0  0  0  0  0
  -11.0689   83.0240   57.4035 O   0  0  0  0  0  0  0  0  0  0  0  0
   -9.3363   82.2675   56.2048 N   0  0  0  0  0  0  0  0  0  0  0  0
   -9.0524   83.1928   58.3934 C   0  0  0  0  0  0  0  0  0  0  0  0
   -7.6939   82.9572   58.2659 C   0  0  0  0  0  0  0  0  0  0  0  0
   -7.1846   82.3822   57.1121 C   0  0  0  0  0  0  0  0  0  0  0  0
   -8.0182   82.0341   56.0703 C   0  0  0  0  0  0  0  0  0  0  0  0
   -7.5585   81.4194   54.8113 C   0  0  0  0  0  0  0  0  0  0  0  0
   -6.0737   81.3101   54.7015 C   0  0  1  0  0  0  0  0  0  0  0  0
   -5.5560   82.6295   54.1962 C   0  0  0  0  0  0  0  0  0  0  0  0
   -4.7205   78.9038   55.3478 C   0  0  0  0  0  0  0  0  0  0  0  0
   -4.8937   79.9448   56.3669 C   0  0  0  0  0  0  0  0  0  0  0  0
   -5.5149   81.0552   56.0625 C   0  0  0  0  0  0  0  0  0  0  0  0
   -5.7158   82.1670   57.0645 C   0  0  2  0  0  0  0  0  0  0  0  0
   -5.1442   81.8548   58.3404 N   0  0  0  0  0  0  0  0  0  0  0  0
   -4.9878   83.3542   56.5007 C   0  0  0  0  0  0  0  0  0  0  0  0
   -5.2001   83.5693   55.0575 C   0  0  0  0  0  0  0  0  0  0  0  0
   -5.0040   84.9486   54.5004 C   0  0  0  0  0  0  0  0  0  0  0  0
  1  2  2  0
  1  3  1  0
  1  4  1  0
  4  5  2  0
  5  6  1  0
  3  7  1  0
  6  7  2  0
  7  8  1  0
  9  8  1  1
  9 10  1  0
 11 12  1  0
  9 13  1  0
 12 13  2  0
  6 14  1  0
 13 14  1  0
 14 15  1  1
 14 16  1  0
 10 17  2  0
 16 17  1  0
 17 18  1  0
M  END
$$$$
