1GPK_HUP_A_1540
     RDKit          3D

 18 20  0  0  0  0  0  0  0  0999 V2000
   -8.5290   87.4480   52.9140 C   0  0  0  0  0  0  0  0  0  0  0  0
   -9.1606   88.2701   52.2197 O   0  0  0  0  0  0  0  0  0  0  0  0
   -8.7633   86.1358   52.7660 N   0  0  0  0  0  0  0  0  0  0  0  0
   -7.6037   87.9471   53.8155 C   0  0  0  0  0  0  0  0  0  0  0  0
   -6.9193   87.0099   54.5708 C   0  0  0  0  0  0  0  0  0  0  0  0
   -7.1703   85.6564   54.4089 C   0  0  0  0  0  0  0  0  0  0  0  0
   -8.1042   85.2167   53.4946 C   0  0  0  0  0  0  0  0  0  0  0  0
   -8.4306   83.7979   53.2608 C   0  0  0  0  0  0  0  0  0  0  0  0
   -7.5673   82.8478   54.0229 C   0  0  1  0  0  0  0  0  0  0  0  0
   -6.3047   82.6436   53.2301 C   0  0  0  0  0  0  0  0  0  0  0  0
   -8.4504   81.7512   56.4839 C   0  0  0  0  0  0  0  0  0  0  0  0
   -7.6187   82.9596   56.4754 C   0  0  0  0  0  0  0  0  0  0  0  0
   -7.2238   83.4686   55.3367 C   0  0  0  0  0  0  0  0  0  0  0  0
   -6.3890   84.7248   55.2618 C   0  0  2  0  0  0  0  0  0  0  0  0
   -6.0913   85.2543   56.5592 N   0  0  0  0  0  0  0  0  0  0  0  0
   -5.0975   84.3125   54.6143 C   0  0  0  0  0  0  0  0  0  0  0  0
   -5.2576   83.4226   53.4496 C   0  0  0  0  0  0  0  0  0  0  0  0
   -4.1645   83.3800   52.4226 C   0  0  0  0  0  0  0  0  0  0  0  0
  1  2  2  0
  1  3  1  0
  1  4  1  0
  4  5  2  0
  5  6  1  0
  3  7  1  0
  6  7  2  0
  7  8  1  0
  9  8  1  6
  9 10  1  0
 11 12  1  0
  9 13  1  0
 12 13  2  0
  6 14  1  0
 13 14  1  0
 14 15  1  1
 14 16  1  0
 10 17  2  0
 16 17  1  0
 17 18  1  0
M  END
$$$$
