1GPK_HUP_A_1540
     RDKit          3D

 18 20  0  0  0  0  0  0  0  0999 V2000
   -9.3363   88.1755   57.1567 C   0  0  0  0  0  0  0  0  0  0  0  0
   -9.8509   88.8644   58.0607 O   0  0  0  0  0  0  0  0  0  0  0  0
   -9.9291   87.0358   56.7718 N   0  0  0  0  0  0  0  0  0  0  0  0
   -8.1590   88.6360   56.5911 C   0  0  0  0  0  0  0  0  0  0  0  0
   -7.6129   87.8494   55.5910 C   0  0  0  0  0  0  0  0  0  0  0  0
   -8.2350   86.6735   55.2018 C   0  0  0  0  0  0  0  0  0  0  0  0
   -9.4074   86.2639   55.8012 C   0  0  0  0  0  0  0  0  0  0  0  0
  -10.1315   85.0293   55.4473 C   0  0  0  0  0  0  0  0  0  0  0  0
   -9.5476   84.3016   54.2818 C   0  0  1  0  0  0  0  0  0  0  0  0
  -10.0965   84.9314   53.0303 C   0  0  0  0  0  0  0  0  0  0  0  0
   -7.7785   82.1291   54.7217 C   0  0  0  0  0  0  0  0  0  0  0  0
   -7.2442   83.4736   54.4785 C   0  0  0  0  0  0  0  0  0  0  0  0
   -8.0651   84.4777   54.3072 C   0  0  0  0  0  0  0  0  0  0  0  0
   -7.5772   85.8948   54.1216 C   0  0  2  0  0  0  0  0  0  0  0  0
   -6.1475   85.9820   54.1463 N   0  0  0  0  0  0  0  0  0  0  0  0
   -8.0502   86.3086   52.7570 C   0  0  0  0  0  0  0  0  0  0  0  0
   -9.4415   85.9262   52.4533 C   0  0  0  0  0  0  0  0  0  0  0  0
  -10.1915   86.7090   51.4159 C   0  0  0  0  0  0  0  0  0  0  0  0
  1  2  2  0
  1  3  1  0
  1  4  1  0
  4  5  2  0
  5  6  1  0
  3  7  1  0
  6  7  2  0
  7  8  1  0
  9  8  1  1
  9 10  1  0
 11 12  1  0
  9 13  1  0
 12 13  2  0
  6 14  1  0
 13 14  1  0
 14 15  1  6
 14 16  1  0
 10 17  2  0
 16 17  1  0
 17 18  1  0
M  END
$$$$
