
     RDKit          3D

 27 29  0  0  0  0  0  0  0  0999 V2000
   -1.5539  -34.5154   27.1183 C   0  0  0  0  0  0  0  0  0  0  0  0
   -2.2944  -33.7654   28.0476 C   0  0  0  0  0  0  0  0  0  0  0  0
   -1.7127  -32.6936   28.7274 C   0  0  0  0  0  0  0  0  0  0  0  0
   -0.3879  -32.3467   28.4782 C   0  0  0  0  0  0  0  0  0  0  0  0
    0.3546  -33.0693   27.5474 C   0  0  0  0  0  0  0  0  0  0  0  0
   -0.2255  -34.1421   26.8666 C   0  0  0  0  0  0  0  0  0  0  0  0
   -2.1068  -35.6391   24.8611 C   0  0  0  0  0  0  0  0  0  0  0  0
   -2.8901  -34.7177   24.1342 N   0  0  0  0  0  0  0  0  0  0  0  0
   -2.9986  -34.7758   22.7475 C   0  0  0  0  0  0  0  0  0  0  0  0
   -3.6662  -34.0096   22.0560 O   0  0  0  0  0  0  0  0  0  0  0  0
   -2.2863  -35.7585   22.1360 N   0  0  0  0  0  0  0  0  0  0  0  0
   -1.1973  -36.3170   22.7143 C   0  0  0  0  0  0  0  0  0  0  0  0
   -0.2372  -36.6865   22.0475 O   0  0  0  0  0  0  0  0  0  0  0  0
   -1.2552  -36.4647   24.2004 C   0  0  0  0  0  0  0  0  0  0  0  0
   -2.2389  -35.6531   26.3809 C   0  0  0  0  0  0  0  0  0  0  0  0
   -0.3070  -37.5330   24.7412 C   0  0  0  0  0  0  0  0  0  0  0  0
    0.8555  -36.9380   25.5394 C   0  0  0  0  0  0  0  0  0  0  0  0
   -0.9949  -38.6805   25.4876 C   0  0  0  0  0  0  0  0  0  0  0  0
   -3.6534  -33.6403   24.7567 C   0  0  0  0  0  0  0  0  0  0  0  0
   -4.8811  -34.1458   25.2761 O   0  0  0  0  0  0  0  0  0  0  0  0
   -6.0374  -33.5963   24.6593 C   0  0  0  0  0  0  0  0  0  0  0  0
   -7.1182  -34.6454   24.5789 C   0  0  0  0  0  0  0  0  0  0  0  0
   -8.1238  -34.7121   25.5553 C   0  0  0  0  0  0  0  0  0  0  0  0
   -9.1004  -35.7081   25.5041 C   0  0  0  0  0  0  0  0  0  0  0  0
   -9.0791  -36.6532   24.4805 C   0  0  0  0  0  0  0  0  0  0  0  0
   -8.0809  -36.6039   23.5090 C   0  0  0  0  0  0  0  0  0  0  0  0
   -7.1026  -35.6082   23.5596 C   0  0  0  0  0  0  0  0  0  0  0  0
  1  2  4  0
  2  3  4  0
  3  4  4  0
  4  5  4  0
  1  6  4  0
  5  6  4  0
  7  8  4  0
  8  9  4  0
  9 10  2  0
  9 11  4  0
 11 12  4  0
 12 13  2  0
  7 14  4  0
 12 14  4  0
  1 15  1  0
  7 15  1  0
 14 16  1  0
 16 17  1  0
 16 18  1  0
  8 19  1  0
 19 20  1  0
 20 21  1  0
 21 22  1  0
 22 23  4  0
 23 24  4  0
 24 25  4  0
 25 26  4  0
 22 27  4  0
 26 27  4  0
M  END
