@<TRIPOS>MOLECULE
1JD0_AZM_B_2401
 19 19 0 0 0
SMALL
GASTEIGER

@<TRIPOS>ATOM
      1 C         -13.3730   -6.7640   21.1270 C.ar    1  UNL1        0.2556
      2 C         -15.2340   -5.5800   20.6200 C.ar    1  UNL1        0.1893
      3 C         -17.6860   -5.3980   20.2930 C.2     1  UNL1        0.2156
      4 C         -17.8640   -6.8770   20.5800 C.3     1  UNL1        0.0125
      5 N         -11.0910   -7.8990   20.3810 N.3     1  UNL1       -0.2015
      6 N         -14.1830   -4.8330   20.5410 N.ar    1  UNL1       -0.1239
      7 N         -13.0520   -5.5400   20.8440 N.ar    1  UNL1       -0.1190
      8 N         -16.3850   -4.9120   20.3180 N.am    1  UNL1       -0.2635
      9 O         -12.8010   -9.2720   21.6180 O.2     1  UNL1       -0.1512
     10 O         -11.6250   -7.6290   22.8930 O.2     1  UNL1       -0.1512
     11 O         -18.6970   -4.7370   20.0460 O.2     1  UNL1       -0.2757
     12 S         -12.1460   -7.9640   21.5690 S.O2    1  UNL1        0.0815
     13 S         -15.0170   -7.1920   21.0630 S.2     1  UNL1       -0.0105
     14 H         -16.9097   -7.3197   20.7756 H       1  UNL1        0.0323
     15 H         -18.3113   -7.3534   19.7327 H       1  UNL1        0.0323
     16 H         -18.4965   -7.0010   21.4341 H       1  UNL1        0.0323
     17 H         -11.5499   -8.1481   19.5048 H       1  UNL1        0.1443
     18 H         -10.3310   -8.5540   20.5650 H       1  UNL1        0.1443
     19 H         -16.2794   -3.9607   20.0876 H       1  UNL1        0.1568
@<TRIPOS>BOND
     1     3     4    1
     2     2     6   ar
     3     1     7   ar
     4     6     7   ar
     5     2     8    1
     6     3     8   am
     7     3    11    2
     8     1    12    1
     9     5    12    1
    10     9    12    2
    11    10    12    2
    12     1    13   ar
    13     2    13   ar
    14     4    14    1
    15     4    15    1
    16     4    16    1
    17     5    17    1
    18     5    18    1
    19     8    19    1
