1JD0_AZM_B_2401
     RDKit          3D

 19 19  0  0  0  0  0  0  0  0999 V2000
    1.6955    1.0888   -0.5563 C   0  0  0  0  0  0  0  0  0  0  0  0
   -0.2205    0.3804    0.7004 C   0  0  0  0  0  0  0  0  0  0  0  0
   -2.4438   -0.8554    0.5283 C   0  0  0  0  0  0  0  0  0  0  0  0
   -3.6988   -1.2804    1.2195 C   0  0  0  0  0  0  0  0  0  0  0  0
    3.6619   -0.0013   -2.3050 N   0  0  0  0  0  0  0  0  0  0  0  0
    0.6971    1.0349    1.4465 N   0  0  0  0  0  0  0  0  0  0  0  0
    1.7620    1.4269    0.7491 N   0  0  0  0  0  0  0  0  0  0  0  0
   -1.4474   -0.1184    1.2548 N   0  0  0  0  0  0  0  0  0  0  0  0
    4.0068    2.3028   -1.0683 O   0  0  0  0  0  0  0  0  0  0  0  0
    2.3522    2.2279   -2.8704 O   0  0  0  0  0  0  0  0  0  0  0  0
   -2.2629   -1.1820   -0.6750 O   0  0  0  0  0  0  0  0  0  0  0  0
    2.9478    1.4616   -1.7235 S   0  0  0  0  0  6  0  0  0  0  0  0
    0.2728    0.2641   -0.9121 S   0  0  0  0  0  0  0  0  0  0  0  0
   -4.1332   -0.4204    1.7708 H   0  0  0  0  0  0  0  0  0  0  0  0
   -3.4678   -2.0953    1.9365 H   0  0  0  0  0  0  0  0  0  0  0  0
   -4.4459   -1.6458    0.4831 H   0  0  0  0  0  0  0  0  0  0  0  0
    3.9929   -0.5330   -1.4689 H   0  0  0  0  0  0  0  0  0  0  0  0
    2.8959   -0.5653   -2.7368 H   0  0  0  0  0  0  0  0  0  0  0  0
   -1.6247    0.0718    2.2670 H   0  0  0  0  0  0  0  0  0  0  0  0
  3  4  1  0
  2  6  2  0
  1  7  2  0
  6  7  1  0
  2  8  1  0
  3  8  1  0
  3 11  2  0
  1 12  1  0
  5 12  1  0
  9 12  2  0
 10 12  2  0
  1 13  1  0
  2 13  1  0
  4 14  1  0
  4 15  1  0
  4 16  1  0
  5 17  1  0
  5 18  1  0
  8 19  1  0
M  END
