7VQ9_ISY_B_301
     RDKit          3D

 14 13  0  0  0  0  0  0  0  0999 V2000
   25.2622    1.5038   -2.2006 P   0  0  2  0  0  5  0  0  0  0  0  0
   23.7447    0.9379   -1.7117 O   0  0  0  0  0  0  0  0  0  0  0  0
   23.0927    2.1175   -0.6698 P   0  0  2  0  0  5  0  0  0  0  0  0
   26.3127    1.6384   -0.8850 O   0  0  0  0  0  0  0  0  0  0  0  0
   25.0514    2.8627   -2.8487 O   0  0  0  0  0  0  0  0  0  0  0  0
   25.8479    0.3920   -3.3508 O   0  0  0  0  0  0  0  0  0  0  0  0
   22.2489    3.1201   -1.4461 O   0  0  0  0  0  0  0  0  0  0  0  0
   24.4114    2.9164    0.0369 O   0  0  0  0  0  0  0  0  0  0  0  0
   21.8538    1.2509    0.7846 S   0  0  0  0  0  0  0  0  0  0  0  0
   20.7689    0.0502   -0.0409 C   0  0  0  0  0  0  0  0  0  0  0  0
   21.2181   -1.3620    0.2748 C   0  0  0  0  0  0  0  0  0  0  0  0
   20.3759   -2.3597   -0.4142 C   0  0  0  0  0  0  0  0  0  0  0  0
   19.4812   -1.9656   -1.5390 C   0  0  0  0  0  0  0  0  0  0  0  0
   20.4040   -3.6499   -0.0339 C   0  0  0  0  0  0  0  0  0  0  0  0
  1  2  1  0
  3  2  1  0
  1  4  1  1
  1  5  2  0
  1  6  1  0
  3  7  2  0
  3  8  1  1
  3  9  1  0
 10  9  1  6
 10 11  1  0
 11 12  1  6
 13 12  1  6
 12 14  2  0
M  END
$$$$
