
     RDKit          3D

 14 15  0  0  0  0  0  0  0  0999 V2000
   -7.0100    7.3181   18.2082 N   0  0  0  0  0  0  0  0  0  0  0  0
   -7.0852    7.5579   19.4886 C   0  0  0  0  0  0  0  0  0  0  0  0
   -8.1957    8.3609   20.1587 C   0  0  0  0  0  0  0  0  0  0  0  0
   -8.8756    9.1895   19.1794 N   0  0  0  0  0  0  0  0  0  0  0  0
   -9.8774    9.3555   17.0440 N   0  0  0  0  0  0  0  0  0  0  0  0
   -9.9182    9.0124   15.7995 C   0  0  0  0  0  0  0  0  0  0  0  0
  -10.8564    9.5354   14.9726 N   0  0  0  0  0  0  0  0  0  0  0  0
   -9.0573    8.1213   15.2522 N   0  0  0  0  0  0  0  0  0  0  0  0
   -8.0588    7.5288   15.9681 C   0  0  0  0  0  0  0  0  0  0  0  0
   -7.2854    6.7381   15.4322 O   0  0  0  0  0  0  0  0  0  0  0  0
   -7.9899    7.9004   17.4153 C   0  0  0  0  0  0  0  0  0  0  0  0
   -8.9080    8.8048   17.8455 C   0  0  0  0  0  0  0  0  0  0  0  0
   -6.0555    6.9137   20.3953 C   0  0  0  0  0  0  0  0  0  0  0  0
   -4.7784    7.0121   19.7869 O   0  0  0  0  0  0  0  0  0  0  0  0
  1  2  2  0
  2  3  1  0
  3  4  1  0
  5  6  4  0
  6  7  1  0
  6  8  4  0
  8  9  4  0
  9 10  2  0
  1 11  1  0
  9 11  4  0
  4 12  1  0
  5 12  4  0
 11 12  4  0
  2 13  1  0
 13 14  1  0
M  END
