
     RDKit          3D

 28 30  0  0  0  0  0  0  0  0999 V2000
  -10.1226   54.8545   46.9702 C   0  0  0  0  0  0  0  0  0  0  0  0
   -9.0243   54.4951   47.6628 C   0  0  0  0  0  0  0  0  0  0  0  0
   -8.9370   54.6034   49.0387 N   0  0  0  0  0  0  0  0  0  0  0  0
   -8.6484   55.7631   49.7369 C   0  0  0  0  0  0  0  0  0  0  0  0
   -8.6954   56.8983   49.2770 O   0  0  0  0  0  0  0  0  0  0  0  0
  -11.3267   55.4397   47.5655 C   0  0  0  0  0  0  0  0  0  0  0  0
  -11.7062   55.1123   48.8723 C   0  0  0  0  0  0  0  0  0  0  0  0
  -13.6601   56.5292   48.6794 C   0  0  0  0  0  0  0  0  0  0  0  0
  -12.1128   56.3221   46.8211 C   0  0  0  0  0  0  0  0  0  0  0  0
  -13.2733   56.8640   47.3785 C   0  0  0  0  0  0  0  0  0  0  0  0
  -14.8898   57.4941   50.4490 C   0  0  0  0  0  0  0  0  0  0  0  0
  -14.6134   58.8040   50.8578 C   0  0  0  0  0  0  0  0  0  0  0  0
  -14.7398   59.1527   52.2049 C   0  0  0  0  0  0  0  0  0  0  0  0
  -15.1580   58.1974   53.1368 C   0  0  0  0  0  0  0  0  0  0  0  0
  -15.4550   56.8961   52.7244 C   0  0  0  0  0  0  0  0  0  0  0  0
  -15.3294   56.5444   51.3788 C   0  0  0  0  0  0  0  0  0  0  0  0
   -7.9255   53.9053   46.8489 C   0  0  0  0  0  0  0  0  0  0  0  0
   -7.3087   54.8449   46.1027 O   0  0  0  0  0  0  0  0  0  0  0  0
   -7.5295   52.7524   46.8977 O   0  0  0  0  0  0  0  0  0  0  0  0
   -8.3399   55.5738   51.1848 C   0  0  0  0  0  0  0  0  0  0  0  0
   -7.3763   56.3994   51.7785 C   0  0  0  0  0  0  0  0  0  0  0  0
   -7.0607   56.2506   53.1316 C   0  0  0  0  0  0  0  0  0  0  0  0
   -7.6981   55.2698   53.8913 C   0  0  0  0  0  0  0  0  0  0  0  0
   -8.6460   54.4319   53.3007 C   0  0  0  0  0  0  0  0  0  0  0  0
   -8.9665   54.5787   51.9486 C   0  0  0  0  0  0  0  0  0  0  0  0
  -12.8670   55.6578   49.4300 C   0  0  0  0  0  0  0  0  0  0  0  0
  -14.8127   57.1441   49.1217 O   0  0  0  0  0  0  0  0  0  0  0  0
  -14.0565   60.1349   49.6254 Br  0  0  0  0  0  0  0  0  0  0  0  0
  1  2  2  0
  2  3  1  0
  3  4  1  0
  4  5  2  0
  1  6  1  0
  6  7  4  0
  6  9  4  0
  8 10  4  0
  9 10  4  0
 11 12  4  0
 12 13  4  0
 13 14  4  0
 14 15  4  0
 11 16  4  0
 15 16  4  0
  2 17  1  0
 17 18  1  0
 17 19  2  0
  4 20  1  0
 20 21  4  0
 21 22  4  0
 22 23  4  0
 23 24  4  0
 20 25  4  0
 24 25  4  0
  7 26  4  0
  8 26  4  0
  8 27  1  0
 11 27  1  0
 12 28  1  0
M  END
