7VQ9_ISY_B_301
     RDKit          3D

 26 25  0  0  0  0  0  0  0  0999 V2000
   24.0394    1.3391   16.0643 P   0  0  2  0  0  5  0  0  0  0  0  0
   22.4947    0.7013   15.7353 O   0  0  0  0  0  0  0  0  0  0  0  0
   22.3809    0.4075   14.0589 P   0  0  2  0  0  5  0  0  0  0  0  0
   24.7145    2.0542   14.6843 O   0  0  0  0  0  0  0  0  0  0  0  0
   24.9383    0.2078   16.5073 O   0  0  0  0  0  0  0  0  0  0  0  0
   23.9385    2.4755   17.3161 O   0  0  0  0  0  0  0  0  0  0  0  0
   21.2397   -0.5340   13.7413 O   0  0  0  0  0  0  0  0  0  0  0  0
   23.8189   -0.3152   13.5334 O   0  0  0  0  0  0  0  0  0  0  0  0
   22.1096    2.2205   12.9824 S   0  0  0  0  0  0  0  0  0  0  0  0
   21.6529    3.2382   14.4309 C   0  0  1  0  0  0  0  0  0  0  0  0
   22.5585    4.4673   14.5260 C   0  0  2  0  0  0  0  0  0  0  0  0
   22.3531    5.1897   15.8370 C   0  0  0  0  0  0  0  0  0  0  0  0
   22.8402    4.5816   17.1251 C   0  0  1  0  0  0  0  0  0  0  0  0
   21.7258    6.3748   15.8629 C   0  0  0  0  0  0  0  0  0  0  0  0
   24.0495    2.7267   14.3907 H   0  0  0  0  0  0  0  0  0  0  0  0
   24.7092    2.2735   17.9045 H   0  0  0  0  0  0  0  0  0  0  0  0
   23.7446   -0.3503   12.5466 H   0  0  0  0  0  0  0  0  0  0  0  0
   20.5865    3.5443   14.3955 H   0  0  0  0  0  0  0  0  0  0  0  0
   21.7906    2.6117   15.3375 H   0  0  0  0  0  0  0  0  0  0  0  0
   22.3412    5.1510   13.6811 H   0  0  0  0  0  0  0  0  0  0  0  0
   23.6230    4.1601   14.4302 H   0  0  0  0  0  0  0  0  0  0  0  0
   23.9159    4.8169   17.2686 H   0  0  0  0  0  0  0  0  0  0  0  0
   22.2743    4.9722   17.9968 H   0  0  0  0  0  0  0  0  0  0  0  0
   22.7092    3.4793   17.0927 H   0  0  0  0  0  0  0  0  0  0  0  0
   21.3595    6.8314   14.9483 H   0  0  0  0  0  0  0  0  0  0  0  0
   21.5700    6.9012   16.8001 H   0  0  0  0  0  0  0  0  0  0  0  0
  1  2  1  6
  3  2  1  1
  1  4  1  0
  1  5  2  0
  1  6  1  0
  3  7  2  0
  3  8  1  0
  3  9  1  0
  9 10  1  0
 10 11  1  0
 11 12  1  0
 12 13  1  0
 12 14  2  0
  4 15  1  0
  6 16  1  0
  8 17  1  0
 10 18  1  6
 10 19  1  0
 11 20  1  6
 11 21  1  0
 13 22  1  1
 13 23  1  0
 13 24  1  0
 14 25  1  0
 14 26  1  0
M  END
