7MFP_Z7P_C_401
     RDKit          3D

 83 86  0  0  0  0  0  0  0  0999 V2000
   -3.3168   -0.9317    5.5394 O   0  0  0  0  0  0  0  0  0  0  0  0
   -3.1976    0.2749    5.1986 C   0  0  0  0  0  0  0  0  0  0  0  0
   -3.8863    1.2637    5.8927 C   0  0  0  0  0  0  0  0  0  0  0  0
   -3.7238    2.5896    5.5034 C   0  0  0  0  0  0  0  0  0  0  0  0
   -2.3952    0.6150    4.1557 N   0  0  0  0  0  4  0  0  0  0  0  0
   -2.2468    1.9155    3.7772 C   0  0  0  0  0  0  0  0  0  0  0  0
   -1.5097    2.1864    2.7890 O   0  0  0  0  0  0  0  0  0  0  0  0
   -2.8958    2.9158    4.4646 N   0  0  0  0  0  4  0  0  0  0  0  0
   -2.7482    4.3397    4.0960 C   0  0  1  0  0  0  0  0  0  0  0  0
   -3.8204    4.7429    3.2733 O   0  0  0  0  0  0  0  0  0  0  0  0
   -2.7013    5.2315    5.3479 C   0  0  1  0  0  0  0  0  0  0  0  0
   -1.4579    5.8860    5.4696 O   0  0  0  0  0  0  0  0  0  0  0  0
   -3.8553    6.1958    5.1525 C   0  0  1  0  0  0  0  0  0  0  0  0
   -3.4947    7.5175    5.4678 O   0  0  0  0  0  0  0  0  0  0  0  0
   -4.1857    6.0417    3.6694 C   0  0  2  0  0  0  0  0  0  0  0  0
   -5.6755    6.2711    3.3867 C   0  0  0  0  0  0  0  0  0  0  0  0
   -5.9081    6.1647    2.0016 O   0  0  0  0  0  0  0  0  0  0  0  0
   -5.7251    4.5327    1.5386 P   0  0  2  0  0  5  0  0  0  0  0  0
   -5.1517    3.7580    2.7036 O   0  0  0  0  0  0  0  0  0  0  0  0
   -4.6655    4.4056    0.2184 O   0  0  0  0  0  0  0  0  0  0  0  0
   -7.2676    3.8927    1.1883 O   0  0  0  0  0  0  0  0  0  0  0  0
   -8.3875    4.5539    2.2873 P   0  0  2  0  0  5  0  0  0  0  0  0
   -9.5811    5.0711    1.5170 O   0  0  0  0  0  0  0  0  0  0  0  0
   -7.6753    5.8621    3.0894 O   0  0  0  0  0  0  0  0  0  0  0  0
   -8.8875    3.4065    3.4523 O   0  0  0  0  0  0  0  0  0  0  0  0
   -7.7635    2.7325    3.9820 C   0  0  2  0  0  0  0  0  0  0  0  0
   -6.5754    3.2458    3.4015 O   0  0  0  0  0  0  0  0  0  0  0  0
   -5.4108    2.8001    4.0968 C   0  0  1  0  0  0  0  0  0  0  0  0
   -5.0615    3.8009    5.2093 C   0  0  0  0  0  0  0  0  0  0  0  0
   -5.5090    1.3250    4.6156 C   0  0  1  0  0  0  0  0  0  0  0  0
   -6.4911    0.5405    3.7217 C   0  0  1  0  0  0  0  0  0  0  0  0
   -6.6124   -0.7949    4.1444 O   0  0  0  0  0  0  0  0  0  0  0  0
   -7.8788    1.2256    3.6573 C   0  0  2  0  0  0  0  0  0  0  0  0
   -8.4143    1.0372    2.3694 O   0  0  0  0  0  0  0  0  0  0  0  0
   -4.2080    0.6539    4.5825 N   0  0  0  0  0  0  0  0  0  0  0  0
   -3.0718    1.2742    4.5299 C   0  0  0  0  0  0  0  0  0  0  0  0
   -1.7846    0.5345    4.6273 C   0  0  0  0  0  0  0  0  0  0  0  0
   -1.6922   -0.7073    5.3119 C   0  0  0  0  0  0  0  0  0  0  0  0
   -2.8204   -1.4259    5.7194 O   0  0  0  0  0  0  0  0  0  0  0  0
   -0.4263   -1.2600    5.5651 C   0  0  0  0  0  0  0  0  0  0  0  0
   -0.2835   -2.5542    6.3076 C   0  0  0  0  0  0  0  0  0  0  0  0
   -0.5977    1.1095    4.0972 C   0  0  0  0  0  0  0  0  0  0  0  0
    0.6302    0.4858    4.3536 C   0  0  0  0  0  0  0  0  0  0  0  0
    0.6859   -0.6580    5.0774 N   0  0  0  0  0  0  0  0  0  0  0  0
   -0.6116    2.3779    3.2757 C   0  0  0  0  0  0  0  0  0  0  0  0
   -1.7222    2.3603    2.4096 O   0  0  0  0  0  0  0  0  0  0  0  0
   -2.7739    1.1133    2.9071 P   0  0  1  0  0  5  0  0  0  0  0  0
   -3.4804    0.3798    1.5508 O   0  0  0  0  0  0  0  0  0  0  0  0
   -2.0114    0.0796    3.7107 O   0  0  0  0  0  0  0  0  0  0  0  0
   -3.9914    1.7820    3.8758 O   0  0  0  0  0  0  0  0  0  0  0  0
   -4.5322    1.0136    6.7243 H   0  0  0  0  0  0  0  0  0  0  0  0
   -4.2631    3.3584    6.0460 H   0  0  0  0  0  0  0  0  0  0  0  0
   -1.8866   -0.1352    3.6327 H   0  0  0  0  0  0  0  0  0  0  0  0
   -1.8202    4.4816    3.4942 H   0  0  0  0  0  0  0  0  0  0  0  0
   -2.8685    4.6380    6.2751 H   0  0  0  0  0  0  0  0  0  0  0  0
   -1.3087    6.4161    4.6428 H   0  0  0  0  0  0  0  0  0  0  0  0
   -4.7110    5.8650    5.7910 H   0  0  0  0  0  0  0  0  0  0  0  0
   -4.3368    8.0401    5.5073 H   0  0  0  0  0  0  0  0  0  0  0  0
   -3.5923    6.7713    3.0717 H   0  0  0  0  0  0  0  0  0  0  0  0
   -5.9433    7.2816    3.7706 H   0  0  0  0  0  0  0  0  0  0  0  0
   -6.2694    5.5001    3.9247 H   0  0  0  0  0  0  0  0  0  0  0  0
   -3.7576    4.3765    0.6107 H   0  0  0  0  0  0  0  0  0  0  0  0
   -7.1805    6.3512    2.3866 H   0  0  0  0  0  0  0  0  0  0  0  0
   -7.7405    2.8301    5.0939 H   0  0  0  0  0  0  0  0  0  0  0  0
   -4.5805    2.8398    3.3595 H   0  0  0  0  0  0  0  0  0  0  0  0
   -5.1883    4.8387    4.8338 H   0  0  0  0  0  0  0  0  0  0  0  0
   -4.0028    3.6913    5.5208 H   0  0  0  0  0  0  0  0  0  0  0  0
   -5.7187    3.6665    6.0948 H   0  0  0  0  0  0  0  0  0  0  0  0
   -5.8995    1.3048    5.6597 H   0  0  0  0  0  0  0  0  0  0  0  0
   -6.0569    0.5245    2.6952 H   0  0  0  0  0  0  0  0  0  0  0  0
   -6.9177   -0.7849    5.0887 H   0  0  0  0  0  0  0  0  0  0  0  0
   -8.5529    0.7660    4.4170 H   0  0  0  0  0  0  0  0  0  0  0  0
   -9.4038    1.0448    2.4593 H   0  0  0  0  0  0  0  0  0  0  0  0
   -3.0677    2.3530    4.5414 H   0  0  0  0  0  0  0  0  0  0  0  0
   -3.7509   -1.2584    5.3607 H   0  0  0  0  0  0  0  0  0  0  0  0
    0.7779   -2.7280    6.5835 H   0  0  0  0  0  0  0  0  0  0  0  0
   -0.6292   -3.3920    5.6651 H   0  0  0  0  0  0  0  0  0  0  0  0
   -0.8854   -2.5310    7.2409 H   0  0  0  0  0  0  0  0  0  0  0  0
    1.5538    0.9102    3.9833 H   0  0  0  0  0  0  0  0  0  0  0  0
    0.3491    2.4294    2.7188 H   0  0  0  0  0  0  0  0  0  0  0  0
   -0.6596    3.2691    3.9419 H   0  0  0  0  0  0  0  0  0  0  0  0
   -3.6951   -0.5422    1.8384 H   0  0  0  0  0  0  0  0  0  0  0  0
   -4.5975    1.0252    4.0750 H   0  0  0  0  0  0  0  0  0  0  0  0
  1  2  2  0
  2  3  4  0
  3  4  4  0
  2  5  4  0
  5  6  4  0
  6  7  2  0
  4  8  4  0
  6  8  4  0
  9  8  1  0
  9 10  1  0
  9 11  1  0
 11 12  1  0
 11 13  1  0
 13 14  1  0
 10 15  1  0
 13 15  1  0
 15 16  1  0
 16 17  1  0
 18 17  1  6
 18 19  2  0
 18 20  1  0
 18 21  1  0
 22 21  1  1
 22 23  2  0
 22 24  1  0
 22 25  1  0
 26 25  1  0
 26 27  1  0
 27 28  1  0
 28 29  1  0
 28 30  1  0
 30 31  1  0
 31 32  1  0
 31 33  1  0
 26 33  1  0
 33 34  1  0
 30 35  1  0
 35 36  2  3
 36 37  1  0
 37 38  4  0
 38 39  1  0
 38 40  4  0
 40 41  1  0
 37 42  4  0
 42 43  4  0
 40 44  4  0
 43 44  4  0
 42 45  1  0
 45 46  1  0
 47 46  1  1
 47 48  1  0
 47 49  2  0
 47 50  1  0
  3 51  1  0
  4 52  1  0
  5 53  1  0
  9 54  1  1
 11 55  1  6
 12 56  1  0
 13 57  1  6
 14 58  1  0
 15 59  1  1
 16 60  1  0
 16 61  1  0
 20 62  1  0
 24 63  1  0
 26 64  1  6
 28 65  1  1
 29 66  1  0
 29 67  1  0
 29 68  1  0
 30 69  1  6
 31 70  1  1
 32 71  1  0
 33 72  1  6
 34 73  1  0
 36 74  1  0
 39 75  1  0
 41 76  1  0
 41 77  1  0
 41 78  1  0
 43 79  1  0
 45 80  1  0
 45 81  1  0
 48 82  1  0
 50 83  1  0
M  CHG  2   5   1   8   1
M  END
