@<TRIPOS>MOLECULE
1YVF_PH7_A_800
 44 46 0 0 0
SMALL
GASTEIGER

@<TRIPOS>ATOM
      1 C          -2.8802   -0.1076   -0.4038 C.2     1  UNL1       -0.0263
      2 CA         -3.3509   -0.7988    0.6527 C.2     1  UNL1        0.1191
      3 N          -2.4480   -1.3750    1.6137 N.am    1  UNL1       -0.2758
      4 C          -2.6036   -2.7130    2.1147 C.2     1  UNL1        0.2484
      5 O          -3.3930   -3.5076    1.5335 O.2     1  UNL1       -0.2699
      6 C          -1.4482   -0.0056   -0.7647 C.ar    1  UNL1       -0.0228
      7 C          -0.5984   -1.1260   -0.7385 C.ar    1  UNL1       -0.0511
      8 C           1.2479    0.2251   -1.5503 C.ar    1  UNL1        0.1285
      9 C          -0.9427    1.2244   -1.2101 C.ar    1  UNL1       -0.0511
     10 C           0.3985    1.3449   -1.5852 C.ar    1  UNL1       -0.0188
     11 C           3.1464    1.1919   -2.8472 C.ar    1  UNL1        0.1423
     12 C           4.4613    1.6542   -2.6757 C.ar    1  UNL1        0.0601
     13 C           5.0299    2.5221   -3.6154 C.ar    1  UNL1       -0.0442
     14 C           4.2967    2.9227   -4.7352 C.ar    1  UNL1       -0.0605
     15 C           2.9954    2.4517   -4.9234 C.ar    1  UNL1       -0.0582
     16 C           2.4221    1.5852   -3.9884 C.ar    1  UNL1       -0.0182
     17 C          -4.8108   -0.8635    0.8951 C.2     1  UNL1        0.3512
     18 O          -5.7122   -0.4687   -0.0909 O.3     1  UNL1       -0.4763
     19 OXT        -5.2488   -1.2701    2.0047 O.2     1  UNL1       -0.2437
     20 C          -1.8188   -3.1880    3.2797 C.ar    1  UNL1        0.0370
     21 C          -1.2818   -2.2799    4.2123 C.ar    1  UNL1       -0.0496
     22 C          -0.5471   -2.7426    5.3085 C.ar    1  UNL1       -0.0610
     23 C          -0.3448   -4.1123    5.4899 C.ar    1  UNL1       -0.0617
     24 C          -0.8813   -5.0235    4.5779 C.ar    1  UNL1       -0.0610
     25 C          -1.6174   -4.5668    3.4804 C.ar    1  UNL1       -0.0496
     26 C           0.7425   -1.0038   -1.1134 C.ar    1  UNL1       -0.0188
     27 O           2.6035    0.3095   -1.9006 O.3     1  UNL1       -0.4549
     28 BR          5.4896    1.1212   -1.1526 Br      1  UNL1       -0.0465
     29 H          -3.5738    0.4430   -1.0286 H       1  UNL1        0.0644
     30 H          -1.5836   -0.8433    1.8617 H       1  UNL1        0.1553
     31 H          -0.9731   -2.0983   -0.4455 H       1  UNL1        0.0625
     32 H          -1.5833    2.0971   -1.2493 H       1  UNL1        0.0625
     33 H           0.7752    2.3138   -1.8851 H       1  UNL1        0.0654
     34 H           6.0405    2.8851   -3.4789 H       1  UNL1        0.0630
     35 H           4.7398    3.5926   -5.4608 H       1  UNL1        0.0618
     36 H           2.4330    2.7523   -5.7980 H       1  UNL1        0.0619
     37 H           1.4235    1.2075   -4.1650 H       1  UNL1        0.0655
     38 H          -6.7113   -0.5081    0.0717 H       1  UNL1        0.2954
     39 H          -1.4444   -1.2150    4.1122 H       1  UNL1        0.0625
     40 H          -0.1391   -2.0379    6.0217 H       1  UNL1        0.0618
     41 H           0.2237   -4.4678    6.3396 H       1  UNL1        0.0618
     42 H          -0.7266   -6.0852    4.7210 H       1  UNL1        0.0618
     43 H          -2.0201   -5.2914    2.7835 H       1  UNL1        0.0625
     44 H           1.3884   -1.8720   -1.0802 H       1  UNL1        0.0654
@<TRIPOS>BOND
     1     1     2    2
     2     2     3    1
     3     3     4   am
     4     4     5    2
     5     1     6    1
     6     6     7   ar
     7     6     9   ar
     8     8    10   ar
     9     9    10   ar
    10    11    12   ar
    11    12    13   ar
    12    13    14   ar
    13    14    15   ar
    14    11    16   ar
    15    15    16   ar
    16     2    17    1
    17    17    18    1
    18    17    19    2
    19     4    20    1
    20    20    21   ar
    21    21    22   ar
    22    22    23   ar
    23    23    24   ar
    24    20    25   ar
    25    24    25   ar
    26     7    26   ar
    27     8    26   ar
    28     8    27    1
    29    11    27    1
    30    12    28    1
    31     1    29    1
    32     3    30    1
    33     7    31    1
    34     9    32    1
    35    10    33    1
    36    13    34    1
    37    14    35    1
    38    15    36    1
    39    16    37    1
    40    18    38    1
    41    21    39    1
    42    22    40    1
    43    23    41    1
    44    24    42    1
    45    25    43    1
    46    26    44    1
