1YVF_PH7_A_800
     RDKit          3D

 44 46  0  0  0  0  0  0  0  0999 V2000
   -2.8802   -0.1076   -0.4038 C   0  0  0  0  0  0  0  0  0  0  0  0
   -3.3509   -0.7988    0.6527 C   0  0  0  0  0  0  0  0  0  0  0  0
   -2.4480   -1.3750    1.6137 N   0  0  0  0  0  0  0  0  0  0  0  0
   -2.6036   -2.7130    2.1147 C   0  0  0  0  0  0  0  0  0  0  0  0
   -3.3930   -3.5076    1.5335 O   0  0  0  0  0  0  0  0  0  0  0  0
   -1.4482   -0.0056   -0.7647 C   0  0  0  0  0  0  0  0  0  0  0  0
   -0.5984   -1.1260   -0.7385 C   0  0  0  0  0  0  0  0  0  0  0  0
    1.2479    0.2251   -1.5503 C   0  0  0  0  0  0  0  0  0  0  0  0
   -0.9427    1.2244   -1.2101 C   0  0  0  0  0  0  0  0  0  0  0  0
    0.3985    1.3449   -1.5852 C   0  0  0  0  0  0  0  0  0  0  0  0
    3.1464    1.1919   -2.8472 C   0  0  0  0  0  0  0  0  0  0  0  0
    4.4613    1.6542   -2.6757 C   0  0  0  0  0  0  0  0  0  0  0  0
    5.0299    2.5221   -3.6154 C   0  0  0  0  0  0  0  0  0  0  0  0
    4.2967    2.9227   -4.7352 C   0  0  0  0  0  0  0  0  0  0  0  0
    2.9954    2.4517   -4.9234 C   0  0  0  0  0  0  0  0  0  0  0  0
    2.4221    1.5852   -3.9884 C   0  0  0  0  0  0  0  0  0  0  0  0
   -4.8108   -0.8635    0.8951 C   0  0  0  0  0  0  0  0  0  0  0  0
   -5.7122   -0.4687   -0.0909 O   0  0  0  0  0  0  0  0  0  0  0  0
   -5.2488   -1.2701    2.0047 O   0  0  0  0  0  0  0  0  0  0  0  0
   -1.8188   -3.1880    3.2797 C   0  0  0  0  0  0  0  0  0  0  0  0
   -1.2818   -2.2799    4.2123 C   0  0  0  0  0  0  0  0  0  0  0  0
   -0.5471   -2.7426    5.3085 C   0  0  0  0  0  0  0  0  0  0  0  0
   -0.3448   -4.1123    5.4899 C   0  0  0  0  0  0  0  0  0  0  0  0
   -0.8813   -5.0235    4.5779 C   0  0  0  0  0  0  0  0  0  0  0  0
   -1.6174   -4.5668    3.4804 C   0  0  0  0  0  0  0  0  0  0  0  0
    0.7425   -1.0038   -1.1134 C   0  0  0  0  0  0  0  0  0  0  0  0
    2.6035    0.3095   -1.9006 O   0  0  0  0  0  0  0  0  0  0  0  0
    5.4896    1.1212   -1.1526 Br  0  0  0  0  0  0  0  0  0  0  0  0
   -3.5738    0.4430   -1.0286 H   0  0  0  0  0  0  0  0  0  0  0  0
   -1.5836   -0.8433    1.8617 H   0  0  0  0  0  0  0  0  0  0  0  0
   -0.9731   -2.0983   -0.4455 H   0  0  0  0  0  0  0  0  0  0  0  0
   -1.5833    2.0971   -1.2493 H   0  0  0  0  0  0  0  0  0  0  0  0
    0.7752    2.3138   -1.8851 H   0  0  0  0  0  0  0  0  0  0  0  0
    6.0405    2.8851   -3.4789 H   0  0  0  0  0  0  0  0  0  0  0  0
    4.7398    3.5926   -5.4608 H   0  0  0  0  0  0  0  0  0  0  0  0
    2.4330    2.7523   -5.7980 H   0  0  0  0  0  0  0  0  0  0  0  0
    1.4235    1.2075   -4.1650 H   0  0  0  0  0  0  0  0  0  0  0  0
   -6.7113   -0.5081    0.0717 H   0  0  0  0  0  0  0  0  0  0  0  0
   -1.4444   -1.2150    4.1122 H   0  0  0  0  0  0  0  0  0  0  0  0
   -0.1391   -2.0379    6.0217 H   0  0  0  0  0  0  0  0  0  0  0  0
    0.2237   -4.4678    6.3396 H   0  0  0  0  0  0  0  0  0  0  0  0
   -0.7266   -6.0852    4.7210 H   0  0  0  0  0  0  0  0  0  0  0  0
   -2.0201   -5.2914    2.7835 H   0  0  0  0  0  0  0  0  0  0  0  0
    1.3884   -1.8720   -1.0802 H   0  0  0  0  0  0  0  0  0  0  0  0
  1  2  2  0
  2  3  1  0
  3  4  1  0
  4  5  2  0
  1  6  1  0
  6  7  2  0
  6  9  1  0
  8 10  1  0
  9 10  2  0
 11 12  2  0
 12 13  1  0
 13 14  2  0
 14 15  1  0
 11 16  1  0
 15 16  2  0
  2 17  1  0
 17 18  1  0
 17 19  2  0
  4 20  1  0
 20 21  2  0
 21 22  1  0
 22 23  2  0
 23 24  1  0
 20 25  1  0
 24 25  2  0
  7 26  1  0
  8 26  2  0
  8 27  1  0
 11 27  1  0
 12 28  1  0
  1 29  1  0
  3 30  1  0
  7 31  1  0
  9 32  1  0
 10 33  1  0
 13 34  1  0
 14 35  1  0
 15 36  1  0
 16 37  1  0
 18 38  1  0
 21 39  1  0
 22 40  1  0
 23 41  1  0
 24 42  1  0
 25 43  1  0
 26 44  1  0
M  END
