
     RDKit          3D

 27 29  0  0  0  0  0  0  0  0999 V2000
   -0.6805   -5.5248  -33.0989 O   0  0  0  0  0  0  0  0  0  0  0  0
    0.6391   -5.4388  -32.4161 P   0  0  2  0  0  5  0  0  0  0  0  0
    1.1943   -6.8146  -31.8253 O   0  0  0  0  0  0  0  0  0  0  0  0
    0.5747   -4.5366  -31.0960 O   0  0  0  0  0  0  0  0  0  0  0  0
    1.8601   -4.8263  -33.2131 O   0  0  0  0  0  0  0  0  0  0  0  0
    3.0902   -4.0900  -32.5502 P   0  0  1  0  0  5  0  0  0  0  0  0
    3.7283   -4.7822  -31.3917 O   0  0  0  0  0  0  0  0  0  0  0  0
    4.1386   -3.9717  -33.7663 O   0  0  0  0  0  0  0  0  0  0  0  0
    2.6678   -2.5725  -32.2774 O   0  0  0  0  0  0  0  0  0  0  0  0
    2.6840   -2.1389  -30.9236 C   0  0  0  0  0  0  0  0  0  0  0  0
    4.1205   -1.8378  -30.4875 C   0  0  2  0  0  0  0  0  0  0  0  0
    4.1041   -1.5268  -29.0727 O   0  0  0  0  0  0  0  0  0  0  0  0
    4.6830   -0.6052  -31.2016 C   0  0  2  0  0  0  0  0  0  0  0  0
    6.1037   -0.7097  -31.3193 O   0  0  0  0  0  0  0  0  0  0  0  0
    4.3575    0.5182  -30.2495 C   0  0  0  0  0  0  0  0  0  0  0  0
    4.5388   -0.1645  -28.8998 C   0  0  1  0  0  0  0  0  0  0  0  0
    3.7746    0.4622  -27.8400 N   0  0  0  0  0  0  0  0  0  0  0  0
    2.4667    0.2250  -27.5008 C   0  0  0  0  0  0  0  0  0  0  0  0
    2.0560    1.0023  -26.5178 N   0  0  0  0  0  0  0  0  0  0  0  0
    3.1610    1.7474  -26.1938 C   0  0  0  0  0  0  0  0  0  0  0  0
    4.2291    1.4488  -27.0100 C   0  0  0  0  0  0  0  0  0  0  0  0
    5.4719    1.9896  -27.0033 N   0  0  0  0  0  0  0  0  0  0  0  0
    5.6387    2.8765  -26.0585 C   0  0  0  0  0  0  0  0  0  0  0  0
    6.8371    3.4994  -25.9173 N   0  0  0  0  0  0  0  0  0  0  0  0
    4.6553    3.2426  -25.1605 N   0  0  0  0  0  0  0  0  0  0  0  0
    3.3562    2.7512  -25.1688 C   0  0  0  0  0  0  0  0  0  0  0  0
    2.5039    3.1538  -24.3811 O   0  0  0  0  0  0  0  0  0  0  0  0
  1  2  2  0
  2  3  1  0
  2  4  1  0
  2  5  1  0
  6  5  1  0
  6  7  2  0
  6  8  1  6
  6  9  1  0
  9 10  1  0
 11 10  1  6
 11 12  1  0
 11 13  1  0
 13 14  1  1
 13 15  1  0
 12 16  1  0
 15 16  1  0
 16 17  1  1
 17 18  4  0
 18 19  4  0
 19 20  4  0
 17 21  4  0
 20 21  4  0
 21 22  4  0
 22 23  4  0
 23 24  1  0
 23 25  4  0
 20 26  4  0
 25 26  4  0
 26 27  2  0
M  END
