7SZA_DUI_A_501
     RDKit          3D

 31 33  0  0  0  0  0  0  0  0999 V2000
  -45.4257   -2.5562    3.4342 C   0  0  0  0  0  0  0  0  0  0  0  0
  -45.4429   -1.5549    2.4421 C   0  0  0  0  0  0  0  0  0  0  0  0
  -45.1538   -0.2216    2.7713 C   0  0  0  0  0  0  0  0  0  0  0  0
  -44.8552    0.0767    4.0987 C   0  0  0  0  0  0  0  0  0  0  0  0
  -44.5077    1.3495    4.7160 C   0  0  0  0  0  0  0  0  0  0  0  0
  -43.6249    2.1346    7.0059 C   0  0  2  0  0  0  0  0  0  0  0  0
  -41.4007    2.8844   10.4811 O   0  0  0  0  0  0  0  0  0  0  0  0
  -45.5118    1.9900    8.4860 O   0  0  0  0  0  0  0  0  0  0  0  0
  -44.2929    1.1768    6.1176 N   0  0  0  0  0  0  0  0  0  0  0  0
  -42.1238    1.8058    7.0997 C   0  0  2  0  0  0  0  0  0  0  0  0
  -41.4103    2.7262    8.0949 C   0  0  2  0  0  0  0  0  0  0  0  0
  -43.4773    2.4016    9.5401 N   0  0  0  0  0  0  0  0  0  0  0  0
  -45.1052   -3.2661    5.7699 N   0  0  0  0  0  0  0  0  0  0  0  0
  -45.1180   -2.2386    4.7736 C   0  0  0  0  0  0  0  0  0  0  0  0
  -44.3867    2.4473    4.1104 O   0  0  0  0  0  0  0  0  0  0  0  0
  -44.2657    2.1422    8.3728 C   0  0  0  0  0  0  0  0  0  0  0  0
  -44.4649   -0.2300    6.3324 C   0  0  0  0  0  0  0  0  0  0  0  0
  -44.8341   -0.8971    5.0789 C   0  0  0  0  0  0  0  0  0  0  0  0
  -42.0729    2.6607    9.4396 C   0  0  0  0  0  0  0  0  0  0  0  0
  -44.2846   -0.7955    7.4430 O   0  0  0  0  0  0  0  0  0  0  0  0
  -45.6515   -3.5781    3.1572 H   0  0  0  0  0  0  0  0  0  0  0  0
  -45.6793   -1.8159    1.4188 H   0  0  0  0  0  0  0  0  0  0  0  0
  -45.1618    0.5513    2.0138 H   0  0  0  0  0  0  0  0  0  0  0  0
  -43.7371    3.1582    6.5860 H   0  0  0  0  0  0  0  0  0  0  0  0
  -41.6576    1.9227    6.0974 H   0  0  0  0  0  0  0  0  0  0  0  0
  -41.9843    0.7494    7.4190 H   0  0  0  0  0  0  0  0  0  0  0  0
  -41.4406    3.7741    7.7265 H   0  0  0  0  0  0  0  0  0  0  0  0
  -40.3468    2.4149    8.1827 H   0  0  0  0  0  0  0  0  0  0  0  0
  -43.9344    2.4024   10.4798 H   0  0  0  0  0  0  0  0  0  0  0  0
  -45.2232   -4.2672    5.4971 H   0  0  0  0  0  0  0  0  0  0  0  0
  -44.9893   -3.0518    6.7830 H   0  0  0  0  0  0  0  0  0  0  0  0
  1  2  2  0
  2  3  1  0
  3  4  2  0
  4  5  1  0
  5  9  1  0
  6  9  1  0
  6 10  1  0
 10 11  1  0
  1 14  1  0
 13 14  1  0
  5 15  2  0
 12 16  1  0
  8 16  2  0
  6 16  1  0
  9 17  1  0
  4 18  1  0
 17 18  1  0
 14 18  2  0
  7 19  2  0
 12 19  1  0
 11 19  1  0
 17 20  2  0
  1 21  1  0
  2 22  1  0
  3 23  1  0
  6 24  1  6
 10 25  1  6
 10 26  1  0
 11 27  1  6
 11 28  1  0
 12 29  1  0
 13 30  1  0
 13 31  1  0
M  END
