1U1C_BAU_F_5051
     RDKit          3D

 36 37  0  0  0  0  0  0  0  0999 V2000
   -3.3387  131.0164   70.4964 O   0  0  0  0  0  0  0  0  0  0  0  0
   -3.9841  131.4196   71.6733 C   0  0  2  0  0  0  0  0  0  0  0  0
   -4.5337  130.2036   72.4204 C   0  0  1  0  0  0  0  0  0  0  0  0
   -3.8522  129.0305   72.0163 O   0  0  0  0  0  0  0  0  0  0  0  0
   -4.7641  128.0113   71.6517 C   0  0  1  0  0  0  0  0  0  0  0  0
   -4.0751  126.9505   70.8964 N   0  0  0  0  0  0  0  0  0  0  0  0
   -4.6412  125.7165   70.7012 C   0  0  0  0  0  0  0  0  0  0  0  0
   -5.7872  125.4539   71.1594 O   0  0  0  0  0  0  0  0  0  0  0  0
   -3.9678  124.7558   70.0116 N   0  0  0  0  0  0  0  0  0  0  0  0
   -2.7298  124.9881   69.5022 C   0  0  0  0  0  0  0  0  0  0  0  0
   -2.1307  124.0699   68.8792 O   0  0  0  0  0  0  0  0  0  0  0  0
   -2.8350  127.2152   70.3902 C   0  0  0  0  0  0  0  0  0  0  0  0
   -2.1294  126.2433   69.6729 C   0  0  0  0  0  0  0  0  0  0  0  0
   -0.7383  126.5372   69.1679 C   0  0  1  0  0  0  0  0  0  0  0  0
    0.2281  126.6183   70.3189 C   0  0  0  0  0  0  0  0  0  0  0  0
    0.7777  125.4483   70.8700 C   0  0  0  0  0  0  0  0  0  0  0  0
    1.6470  125.5254   71.9626 C   0  0  0  0  0  0  0  0  0  0  0  0
    1.9674  126.7676   72.5170 C   0  0  0  0  0  0  0  0  0  0  0  0
    1.4174  127.9352   71.9810 C   0  0  0  0  0  0  0  0  0  0  0  0
    0.5481  127.8628   70.8881 C   0  0  0  0  0  0  0  0  0  0  0  0
   -3.1341  130.0504   70.6018 H   0  0  0  0  0  0  0  0  0  0  0  0
   -4.8251  132.0930   71.4034 H   0  0  0  0  0  0  0  0  0  0  0  0
   -3.2826  131.9910   72.3219 H   0  0  0  0  0  0  0  0  0  0  0  0
   -4.3479  130.3475   73.5059 H   0  0  0  0  0  0  0  0  0  0  0  0
   -5.6401  130.1422   72.2971 H   0  0  0  0  0  0  0  0  0  0  0  0
   -5.3219  127.6181   72.5321 H   0  0  0  0  0  0  0  0  0  0  0  0
   -5.5401  128.4644   70.9981 H   0  0  0  0  0  0  0  0  0  0  0  0
   -4.4099  123.8177   69.8752 H   0  0  0  0  0  0  0  0  0  0  0  0
   -2.3834  128.1885   70.5490 H   0  0  0  0  0  0  0  0  0  0  0  0
   -0.4145  125.7570   68.4450 H   0  0  0  0  0  0  0  0  0  0  0  0
   -0.7329  127.4957   68.6036 H   0  0  0  0  0  0  0  0  0  0  0  0
    0.5337  124.4786   70.4549 H   0  0  0  0  0  0  0  0  0  0  0  0
    2.0701  124.6215   72.3815 H   0  0  0  0  0  0  0  0  0  0  0  0
    2.6393  126.8252   73.3635 H   0  0  0  0  0  0  0  0  0  0  0  0
    1.6624  128.8963   72.4141 H   0  0  0  0  0  0  0  0  0  0  0  0
    0.1234  128.7747   70.4872 H   0  0  0  0  0  0  0  0  0  0  0  0
  1  2  1  0
  2  3  1  0
  3  4  1  0
  4  5  1  0
  5  6  1  0
  6  7  1  0
  7  8  2  0
  7  9  1  0
  9 10  1  0
 10 11  2  0
  6 12  1  0
 10 13  1  0
 12 13  2  0
 13 14  1  0
 14 15  1  0
 15 16  2  0
 16 17  1  0
 17 18  2  0
 18 19  1  0
 15 20  1  0
 19 20  2  0
  1 21  1  0
  2 22  1  6
  2 23  1  0
  3 24  1  1
  3 25  1  0
  5 26  1  1
  5 27  1  0
  9 28  1  0
 12 29  1  0
 14 30  1  6
 14 31  1  0
 16 32  1  0
 17 33  1  0
 18 34  1  0
 19 35  1  0
 20 36  1  0
M  END
