7NSW_HC4_BBB_401
     RDKit          3D

 12 12  0  0  0  0  0  0  0  0999 V2000
   62.0587   18.1665   39.9254 C   0  0  0  0  0  0  0  0  0  0  0  0
   62.9128   17.3417   40.3383 O   0  0  0  0  0  0  0  0  0  0  0  0
   61.1739   17.6877   38.9480 O   0  0  0  0  0  0  0  0  0  0  0  0
   61.9630   19.5398   40.4074 C   0  0  0  0  0  0  0  0  0  0  0  0
   62.7415   20.0211   41.3364 C   0  0  0  0  0  0  0  0  0  0  0  0
   62.6829   21.3823   41.8523 C   0  0  0  0  0  0  0  0  0  0  0  0
   61.7597   22.2998   41.4009 C   0  0  0  0  0  0  0  0  0  0  0  0
   61.7096   23.5926   41.8958 C   0  0  0  0  0  0  0  0  0  0  0  0
   62.6124   23.9773   42.8729 C   0  0  0  0  0  0  0  0  0  0  0  0
   63.5454   23.0899   43.3458 C   0  0  0  0  0  0  0  0  0  0  0  0
   63.5614   21.8092   42.8250 C   0  0  0  0  0  0  0  0  0  0  0  0
   62.5177   25.2984   43.3393 O   0  0  0  0  0  0  0  0  0  0  0  0
  1  2  2  0
  1  3  1  0
  1  4  1  0
  4  5  2  0
  5  6  1  0
  6  7  2  0
  7  8  1  0
  8  9  2  0
  9 10  1  0
  6 11  1  0
 10 11  2  0
  9 12  1  0
M  END
$$$$
