8BOM_QU6_A_1001
     RDKit          3D

 35 39  0  0  0  0  0  0  0  0999 V2000
  -83.4597  -21.4269   89.6231 N   0  0  0  0  0  0  0  0  0  0  0  0
  -79.1053  -17.5660   87.6092 N   0  0  0  0  0  0  0  0  0  0  0  0
  -84.2270  -18.7558   92.0198 C   0  0  0  0  0  0  0  0  0  0  0  0
  -85.3125  -17.7289   92.0594 C   0  0  0  0  0  0  0  0  0  0  0  0
  -86.3497  -15.9526   93.4260 C   0  0  0  0  0  0  0  0  0  0  0  0
  -87.4871  -16.3715   94.1130 C   0  0  0  0  0  0  0  0  0  0  0  0
  -88.4915  -15.4578   94.4025 C   0  0  0  0  0  0  0  0  0  0  0  0
  -88.3670  -14.1314   94.0081 C   0  0  0  0  0  0  0  0  0  0  0  0
  -84.2797  -19.5699   90.8966 C   0  0  0  0  0  0  0  0  0  0  0  0
  -83.1746  -21.1836   88.3159 C   0  0  0  0  0  0  0  0  0  0  0  0
  -80.5494  -19.2680   86.6906 C   0  0  0  0  0  0  0  0  0  0  0  0
  -78.4273  -17.5561   86.4568 C   0  0  0  0  0  0  0  0  0  0  0  0
  -80.1401  -18.4106   87.7076 C   0  0  0  0  0  0  0  0  0  0  0  0
  -83.0618  -21.7758   86.0209 C   0  0  0  0  0  0  0  0  0  0  0  0
  -84.6227  -23.0177   86.9946 C   0  0  0  0  0  0  0  0  0  0  0  0
  -85.3360  -16.8877   93.1110 N   0  0  0  0  0  0  0  0  0  0  0  0
  -81.6580  -22.2220   91.7012 C   0  0  0  0  0  0  0  0  0  0  0  0
  -89.5902  -15.9583   95.0687 O   0  0  0  0  0  0  0  0  0  0  0  0
  -82.5522  -21.0079   91.7942 C   0  0  0  0  0  0  0  0  0  0  0  0
  -87.2018  -13.7136   93.3882 C   0  0  0  0  0  0  0  0  0  0  0  0
  -86.1773  -14.6087   93.1365 C   0  0  0  0  0  0  0  0  0  0  0  0
  -83.4948  -20.7152   90.7863 C   0  0  0  0  0  0  0  0  0  0  0  0
  -81.6936  -20.1897   86.8527 C   0  0  0  0  0  0  0  0  0  0  0  0
  -79.8180  -19.2279   85.5080 C   0  0  0  0  0  0  0  0  0  0  0  0
  -78.7452  -18.3647   85.3854 C   0  0  0  0  0  0  0  0  0  0  0  0
  -82.4535  -20.1302   92.8757 C   0  0  0  0  0  0  0  0  0  0  0  0
  -83.6525  -22.0249   87.2619 C   0  0  0  0  0  0  0  0  0  0  0  0
  -83.4171  -22.6867   83.6919 C   0  0  0  0  0  0  0  0  0  0  0  0
  -83.2890  -19.0332   93.0027 C   0  0  0  0  0  0  0  0  0  0  0  0
  -89.5658  -15.9016   96.5042 C   0  0  0  0  0  0  0  0  0  0  0  0
  -82.2160  -20.2784   88.0916 N   0  0  0  0  0  0  0  0  0  0  0  0
  -82.0939  -20.8872   85.7775 N   0  0  0  0  0  0  0  0  0  0  0  0
  -84.6415  -23.3386   85.7167 N   0  0  0  0  0  0  0  0  0  0  0  0
  -83.6769  -22.5769   85.1205 N   0  0  0  0  0  0  0  0  0  0  0  0
  -86.1166  -17.6457   91.1365 O   0  0  0  0  0  0  0  0  0  0  0  0
  3  4  1  0
  5  6  2  0
  6  7  1  0
  7  8  2  0
  3  9  2  0
  1 10  1  0
  2 12  2  0
 11 13  2  0
  2 13  1  0
  4 16  1  0
  5 16  1  0
  7 18  1  0
 17 19  1  0
  8 20  1  0
  5 21  1  0
 20 21  2  0
  1 22  1  0
 19 22  2  0
  9 22  1  0
 11 23  1  0
 11 24  1  0
 24 25  2  0
 12 25  1  0
 19 26  1  0
 15 27  1  0
 14 27  2  0
 10 27  1  0
 26 29  2  0
  3 29  1  0
 18 30  1  0
 10 31  2  0
 23 31  1  0
 14 32  1  0
 23 32  2  0
 15 33  2  0
 33 34  1  0
 28 34  1  0
 14 34  1  0
  4 35  2  0
M  END
