
     RDKit          3D

 35 37  0  0  0  0  0  0  0  0999 V2000
  -11.2299  -18.4415   27.0479 O   0  0  0  0  0  0  0  0  0  0  0  0
  -11.3268  -17.7485   28.4887 P   0  0  1  0  0  5  0  0  0  0  0  0
  -10.0883  -17.9163   29.3001 O   0  0  0  0  0  0  0  0  0  0  0  0
  -11.6803  -16.2274   28.1191 O   0  0  0  0  0  0  0  0  0  0  0  0
  -11.4053  -15.2128   29.0680 C   0  0  2  0  0  0  0  0  0  0  0  0
  -12.1591  -13.9223   28.6976 C   0  0  2  0  0  0  0  0  0  0  0  0
  -13.5803  -14.1393   28.5821 O   0  0  0  0  0  0  0  0  0  0  0  0
  -11.6280  -13.3668   27.3711 C   0  0  1  0  0  0  0  0  0  0  0  0
  -12.2702  -12.1044   27.1288 O   0  0  0  0  0  0  0  0  0  0  0  0
  -10.0893  -13.1933   27.4364 C   0  0  2  0  0  0  0  0  0  0  0  0
   -9.5458  -12.7162   26.1480 N   0  0  0  0  0  0  0  0  0  0  0  0
   -9.4334  -14.5153   27.9142 C   0  0  1  0  0  0  0  0  0  0  0  0
   -7.9326  -14.3724   28.1595 C   0  0  0  0  0  0  0  0  0  0  0  0
  -10.0029  -14.9612   29.1530 O   0  0  0  0  0  0  0  0  0  0  0  0
  -12.6772  -18.2918   29.1109 O   0  0  0  0  0  0  0  0  0  0  0  0
  -14.0783  -18.3028   28.3804 P   0  0  1  0  0  5  0  0  0  0  0  0
  -15.0289  -19.0102   29.4629 O   0  0  0  0  0  0  0  0  0  0  0  0
  -14.6308  -16.9627   28.0219 O   0  0  0  0  0  0  0  0  0  0  0  0
  -14.0002  -19.3783   27.2010 O   0  0  0  0  0  0  0  0  0  0  0  0
  -13.5845  -20.6989   27.5170 C   0  0  0  0  0  0  0  0  0  0  0  0
  -14.4838  -21.7437   26.8532 C   0  0  1  0  0  0  0  0  0  0  0  0
  -13.7260  -22.9638   26.6768 O   0  0  0  0  0  0  0  0  0  0  0  0
  -15.7393  -22.1000   27.6579 C   0  0  1  0  0  0  0  0  0  0  0  0
  -16.8924  -22.1217   26.8084 O   0  0  0  0  0  0  0  0  0  0  0  0
  -15.4578  -23.4902   28.1847 C   0  0  0  0  0  0  0  0  0  0  0  0
  -14.5538  -24.0573   27.1019 C   0  0  2  0  0  0  0  0  0  0  0  0
  -13.7488  -25.1873   27.5404 N   0  0  0  0  0  0  0  0  0  0  0  0
  -12.9479  -25.0943   28.6607 C   0  0  0  0  0  0  0  0  0  0  0  0
  -12.2313  -26.1228   29.1284 C   0  0  0  0  0  0  0  0  0  0  0  0
  -11.3538  -26.0524   30.3329 C   0  0  0  0  0  0  0  0  0  0  0  0
  -13.8835  -26.3798   26.8425 C   0  0  0  0  0  0  0  0  0  0  0  0
  -14.6414  -26.5416   25.8886 O   0  0  0  0  0  0  0  0  0  0  0  0
  -13.1103  -27.4188   27.2930 N   0  0  0  0  0  0  0  0  0  0  0  0
  -12.3127  -27.4097   28.4015 C   0  0  0  0  0  0  0  0  0  0  0  0
  -11.7274  -28.4130   28.7938 O   0  0  0  0  0  0  0  0  0  0  0  0
  2  1  1  6
  2  3  2  0
  2  4  1  0
  5  4  1  6
  5  6  1  0
  6  7  1  6
  6  8  1  0
  8  9  1  1
  8 10  1  0
 10 11  1  6
 10 12  1  0
 12 13  1  1
 12 14  1  0
  5 14  1  0
  2 15  1  0
 15 16  1  0
 16 17  1  1
 16 18  2  0
 16 19  1  0
 19 20  1  0
 21 20  1  1
 21 22  1  0
 21 23  1  0
 23 24  1  6
 23 25  1  0
 25 26  1  0
 22 26  1  0
 26 27  1  1
 27 28  4  0
 28 29  4  0
 29 30  1  0
 27 31  4  0
 31 32  2  0
 31 33  4  0
 33 34  4  0
 29 34  4  0
 34 35  2  0
M  END
