7D8Q_GZF_A_201
     RDKit          3D

 28 30  0  0  0  0  0  0  0  0999 V2000
  -25.6088  -12.7463   22.7089 O   0  0  0  0  0  0  0  0  0  0  0  0
  -26.0482  -11.6220   21.9374 C   0  0  1  0  0  0  0  0  0  0  0  0
  -26.4580  -10.4800   22.6711 C   0  0  1  0  0  0  0  0  0  0  0  0
  -25.7000   -9.8173   23.8897 C   0  0  0  0  0  0  0  0  0  0  0  0
  -25.3300   -8.4433   23.7204 O   0  0  0  0  0  0  0  0  0  0  0  0
  -24.1126   -8.0825   24.6635 P   0  0  2  0  0  0  0  0  0  0  0  0
  -23.2215   -7.0589   24.0389 O   0  0  0  0  0  0  0  0  0  0  0  0
  -23.2978   -9.3077   25.1094 O   0  0  0  0  0  0  0  0  0  0  0  0
  -24.8776   -7.5015   25.9726 O   0  0  0  0  0  0  0  0  0  0  0  0
  -24.6042   -6.3735   27.0765 P   0  0  1  0  0  0  0  0  0  0  0  0
  -25.3268   -7.0748   28.2957 O   0  0  0  0  0  0  0  0  0  0  0  0
  -23.0728   -6.0888   27.2005 O   0  0  0  0  0  0  0  0  0  0  0  0
  -25.5849   -4.7346   26.5093 S   0  0  0  0  0  0  0  0  0  0  0  0
  -26.3167   -9.2985   21.6035 O   0  0  0  0  0  0  0  0  0  0  0  0
  -25.1260   -9.6038   21.0832 C   0  0  2  0  0  0  0  0  0  0  0  0
  -24.6308   -8.5021   20.2201 N   0  0  0  0  0  0  0  0  0  0  0  0
  -24.5082   -7.3224   20.8771 C   0  0  0  0  0  0  0  0  0  0  0  0
  -24.0234   -6.3823   20.1056 N   0  0  0  0  0  0  0  0  0  0  0  0
  -23.7770   -6.9655   18.8917 C   0  0  0  0  0  0  0  0  0  0  0  0
  -23.2612   -6.3857   17.7091 C   0  0  0  0  0  0  0  0  0  0  0  0
  -22.9478   -5.2162   17.6748 O   0  0  0  0  0  0  0  0  0  0  0  0
  -23.1406   -7.2047   16.6638 N   0  0  0  0  0  0  0  0  0  0  0  0
  -23.4875   -8.5163   16.7102 C   0  0  0  0  0  0  0  0  0  0  0  0
  -23.3176   -9.3121   15.5121 N   0  0  0  0  0  0  0  0  0  0  0  0
  -23.9797   -9.1006   17.8134 N   0  0  0  0  0  0  0  0  0  0  0  0
  -24.1348   -8.3209   18.9432 C   0  0  0  0  0  0  0  0  0  0  0  0
  -25.0862  -11.1496   20.7996 C   0  0  1  0  0  0  0  0  0  0  0  0
  -23.7196  -11.5068   20.9109 O   0  0  0  0  0  0  0  0  0  0  0  0
  2  1  1  1
  2  3  1  0
  3  4  1  1
  4  5  1  0
  5  6  1  0
  6  7  1  6
  6  8  2  0
  6  9  1  0
  9 10  1  0
 10 11  1  1
 10 12  1  0
 10 13  2  0
  3 14  1  0
 14 15  1  0
 15 16  1  6
 16 17  1  0
 17 18  2  0
 18 19  1  0
 19 20  2  0
 20 21  1  0
 20 22  1  0
 22 23  2  0
 23 24  1  0
 23 25  1  0
 25 26  2  0
 16 26  1  0
 19 26  1  0
  2 27  1  0
 15 27  1  0
 27 28  1  1
M  END
