8G43_ZU6_A_1304
     RDKit          3D

 21 22  0  0  0  0  0  0  0  0999 V2000
   -1.5858    5.6943    4.2534 C   0  0  0  0  0  0  0  0  0  0  0  0
   -1.8707    5.2075    5.5024 C   0  0  0  0  0  0  0  0  0  0  0  0
   -1.3448    3.9782    7.5117 C   0  0  0  0  0  0  0  0  0  0  0  0
   -2.6583    1.6939    8.3510 O   0  0  0  0  0  0  0  0  0  0  0  0
   -2.1013    1.9909    9.4442 C   0  0  0  0  0  0  0  0  0  0  0  0
   -2.6554    1.6084   10.6986 N   0  0  0  0  0  0  0  0  0  0  0  0
   -3.9604    0.9625   10.6938 C   0  0  0  0  0  0  0  0  0  0  0  0
   -0.8222    2.7645    9.4927 C   0  0  0  0  0  0  0  0  0  0  0  0
   -0.4254    3.2286    8.1868 N   0  0  0  0  0  0  0  0  0  0  0  0
   -2.4734    4.2465    8.0051 O   0  0  0  0  0  0  0  0  0  0  0  0
   -1.0029    4.4452    6.2504 C   0  0  0  0  0  0  0  0  0  0  0  0
   -0.3505    5.4067    3.7010 C   0  0  0  0  0  0  0  0  0  0  0  0
    0.5522    4.6353    4.4355 C   0  0  0  0  0  0  0  0  0  0  0  0
    0.2281    4.1604    5.6963 C   0  0  0  0  0  0  0  0  0  0  0  0
    1.1153    3.4076    6.4075 N   0  0  0  0  0  0  0  0  0  0  0  0
    0.7858    2.9487    7.6410 C   0  0  0  0  0  0  0  0  0  0  0  0
    1.7042    2.1268    8.4634 C   0  0  0  0  0  0  0  0  0  0  0  0
    3.1372    2.2464    8.0173 C   0  0  0  0  0  0  0  0  0  0  0  0
    3.6681    3.5846    8.2989 C   0  0  0  0  0  0  0  0  0  0  0  0
    4.6415    4.1501    7.4931 O   0  0  0  0  0  0  0  0  0  0  0  0
    3.2805    4.3040    9.2813 O   0  0  0  0  0  0  0  0  0  0  0  0
  1  2  2  0
  4  5  2  0
  5  6  1  0
  7  6  1  1
  5  8  1  0
  3  9  1  0
  8  9  1  1
  3 10  2  0
  2 11  1  0
  3 11  1  0
  1 12  1  0
 12 13  2  0
 13 14  1  0
 11 14  2  0
 14 15  1  0
 15 16  2  0
  9 16  1  0
 17 16  1  6
 17 18  1  0
 18 19  1  1
 19 20  1  0
 19 21  2  0
M  END
$$$$
