1HWI_115_B_1
     RDKit          3D

 30 32  0  0  0  0  0  0  0  0999 V2000
   19.3995   -2.7135   20.7946 C   0  0  0  0  0  0  0  0  0  0  0  0
   18.8356   -2.8405   19.5300 C   0  0  0  0  0  0  0  0  0  0  0  0
   17.5572   -3.3568   19.5054 C   0  0  0  0  0  0  0  0  0  0  0  0
   16.8814   -3.7264   20.6748 C   0  0  0  0  0  0  0  0  0  0  0  0
   17.4646   -3.5899   21.9070 C   0  0  0  0  0  0  0  0  0  0  0  0
   18.7413   -3.0746   21.9485 C   0  0  0  0  0  0  0  0  0  0  0  0
   20.6293   -2.1826   20.5905 C   0  0  0  0  0  0  0  0  0  0  0  0
   20.8618   -1.9688   19.2272 C   0  0  0  0  0  0  0  0  0  0  0  0
   19.7218   -2.3952   18.6043 N   0  0  0  0  0  0  0  0  0  0  0  0
   22.8659   -2.5497   23.6066 C   0  0  0  0  0  0  0  0  0  0  0  0
   21.9896   -2.8701   22.5688 C   0  0  0  0  0  0  0  0  0  0  0  0
   21.5578   -1.8884   21.7043 C   0  0  0  0  0  0  0  0  0  0  0  0
   21.9675   -0.5726   21.8283 C   0  0  0  0  0  0  0  0  0  0  0  0
   22.8277   -0.2645   22.8490 C   0  0  0  0  0  0  0  0  0  0  0  0
   23.2825   -1.2352   23.7400 C   0  0  0  0  0  0  0  0  0  0  0  0
   24.1218   -0.9120   24.7291 F   0  0  0  0  0  0  0  0  0  0  0  0
   26.0537   -2.3580   14.3486 O   0  0  0  0  0  0  0  0  0  0  0  0
   24.4130   -3.8998   14.3586 O   0  0  0  0  0  0  0  0  0  0  0  0
   26.7859   -2.0417   17.1616 O   0  0  0  0  0  0  0  0  0  0  0  0
   25.1104   -2.8578   14.9943 C   0  0  0  0  0  0  0  0  0  0  0  0
   24.6627   -2.4731   16.3305 C   0  0  0  0  0  0  0  0  0  0  0  0
   25.5181   -1.4374   17.0111 C   0  0  1  0  0  0  0  0  0  0  0  0
   24.9718   -1.0720   18.3934 C   0  0  0  0  0  0  0  0  0  0  0  0
   23.9534    0.0381   18.1924 C   0  0  1  0  0  0  0  0  0  0  0  0
   22.6712   -0.2775   18.9486 C   0  0  0  0  0  0  0  0  0  0  0  0
   22.0797   -1.4178   18.7306 C   0  0  0  0  0  0  0  0  0  0  0  0
   19.5059   -2.4221   17.1920 C   0  0  1  0  0  0  0  0  0  0  0  0
   19.4383   -3.8357   16.5932 C   0  0  0  0  0  0  0  0  0  0  0  0
   18.3983   -1.5783   16.6792 C   0  0  0  0  0  0  0  0  0  0  0  0
   24.4171    1.2463   18.6466 O   0  0  0  0  0  0  0  0  0  0  0  0
  1  2  1  0
  2  3  2  0
  3  4  1  0
  4  5  2  0
  1  6  2  0
  5  6  1  0
  1  7  1  0
  7  8  2  0
  8  9  1  0
  2  9  1  0
 10 11  2  0
  7 12  1  0
 11 12  1  0
 12 13  2  0
 13 14  1  0
 14 15  2  0
 10 15  1  0
 15 16  1  0
 17 20  2  0
 18 20  1  0
 21 20  1  1
 21 22  1  0
 22 19  1  1
 22 23  1  0
 23 24  1  1
 24 25  1  0
 25 26  2  0
  8 26  1  0
 27  9  1  1
 28 27  1  6
 29 27  1  1
 24 30  1  1
M  END
$$$$
