
     RDKit          3D

 28 30  0  0  0  0  0  0  0  0999 V2000
    8.1477    9.7068   21.2986 C   0  0  0  0  0  0  0  0  0  0  0  0
    6.2738    8.2457   21.6779 N   0  0  0  0  0  0  0  0  0  0  0  0
    6.2450    8.9538   24.4603 C   0  0  0  0  0  0  0  0  0  0  0  0
    6.7925   10.1355   26.5650 C   0  0  0  0  0  0  0  0  0  0  0  0
    7.6516   10.5445   29.9494 C   0  0  0  0  0  0  0  0  0  0  0  0
    7.1394    9.5082   23.6282 C   0  0  0  0  0  0  0  0  0  0  0  0
    4.1355    6.2259   21.0324 C   0  0  0  0  0  0  0  0  0  0  0  0
    9.6875   11.4840   20.7156 C   0  0  0  0  0  0  0  0  0  0  0  0
   11.1760   11.3654   18.6996 C   0  0  0  0  0  0  0  0  0  0  0  0
   10.1060   10.7789   19.5773 C   0  0  0  0  0  0  0  0  0  0  0  0
    9.5316    9.5253   19.3141 C   0  0  0  0  0  0  0  0  0  0  0  0
    9.9636    8.7299   18.2081 N   0  0  0  0  0  0  0  0  0  0  0  0
   10.3904    7.1229   18.5401 S   0  0  2  0  0  6  0  0  0  0  0  0
    8.8229    6.3039   18.3469 C   0  0  0  0  0  0  0  0  0  0  0  0
   10.8279    6.9886   19.9109 O   0  0  0  0  0  0  0  0  0  0  0  0
   11.2346    6.7192   17.4352 O   0  0  0  0  0  0  0  0  0  0  0  0
    8.5712    8.9887   20.1745 C   0  0  0  0  0  0  0  0  0  0  0  0
    7.1238    9.0877   22.1914 C   0  0  0  0  0  0  0  0  0  0  0  0
    5.4007    7.7304   22.5900 N   0  0  0  0  0  0  0  0  0  0  0  0
    5.3277    8.0130   23.9345 C   0  0  0  0  0  0  0  0  0  0  0  0
    6.1193    9.2255   25.8027 N   0  0  0  0  0  0  0  0  0  0  0  0
    6.8652    9.6623   27.8356 O   0  0  0  0  0  0  0  0  0  0  0  0
    6.5786   10.6063   28.8785 C   0  0  0  0  0  0  0  0  0  0  0  0
    7.2595   11.2013   26.1914 O   0  0  0  0  0  0  0  0  0  0  0  0
    4.3534    7.3165   24.4837 N   0  0  0  0  0  0  0  0  0  0  0  0
    3.7724    6.5587   23.4917 N   0  0  0  0  0  0  0  0  0  0  0  0
    4.4057    6.8101   22.3618 C   0  0  0  0  0  0  0  0  0  0  0  0
    8.7183   10.9535   21.5725 C   0  0  0  0  0  0  0  0  0  0  0  0
  3  6  4  0
  9 10  1  0
  8 10  4  0
 10 11  4  0
 11 12  1  0
 12 13  1  0
 13 14  1  1
 13 15  2  0
 13 16  2  0
 11 17  4  0
  1 17  4  0
  1 18  1  0
  6 18  4  0
  2 18  4  0
  2 19  4  0
  3 20  4  0
 19 20  4  0
  4 21  1  0
  3 21  1  0
  4 22  1  0
  5 23  1  0
 22 23  1  0
  4 24  2  0
 20 25  4  0
 25 26  4  0
 19 27  4  0
  7 27  1  0
 26 27  4  0
  8 28  4  0
  1 28  4  0
M  END
