
     RDKit          3D

 11 10  0  0  0  0  0  0  0  0999 V2000
  -53.1204   48.4762  -21.1006 C   0  0  0  0  0  0  0  0  0  0  0  0
  -54.1156   49.2257  -20.2053 C   0  0  0  0  0  0  0  0  0  0  0  0
  -55.6994   48.2703  -18.6359 C   0  0  0  0  0  0  0  0  0  0  0  0
  -55.8748   47.6537  -17.2449 C   0  0  0  0  0  0  0  0  0  0  0  0
  -57.3436   47.6688  -15.2567 C   0  0  0  0  0  0  0  0  0  0  0  0
  -58.5306   46.7316  -15.0328 C   0  0  0  0  0  0  0  0  0  0  0  0
  -54.2788   48.5576  -18.9091 N   0  0  0  0  0  0  0  0  0  0  0  0
  -57.0854   47.9652  -16.6536 N   0  0  0  0  0  0  0  0  0  0  0  0
  -53.4232   47.0850  -21.1361 O   0  0  0  0  0  0  0  0  0  0  0  0
  -55.0041   46.9857  -16.6971 O   0  0  0  0  0  0  0  0  0  0  0  0
  -59.6149   47.1274  -15.8675 O   0  0  0  0  0  0  0  0  0  0  0  0
  1  2  1  0
  3  4  1  0
  5  6  1  0
  2  7  1  0
  3  7  1  0
  4  8  1  0
  5  8  1  0
  1  9  1  0
  4 10  2  0
  6 11  1  0
M  END
