7ZXV_45D_A_402
     RDKit          3D

 94 95  0  0  0  0  0  0  0  0999 V2000
   10.2952   14.1318  -19.6523 O   0  0  0  0  0  0  0  0  0  0  0  0
   27.3842    6.9044   -0.8212 O   0  0  0  0  0  0  0  0  0  0  0  0
   12.8166   10.7927  -19.4481 C   0  0  2  0  0  0  0  0  0  0  0  0
   28.5806    6.2268   -4.8017 C   0  0  2  0  0  0  0  0  0  0  0  0
   11.8083   10.9649  -20.5921 C   0  0  0  0  0  0  0  0  0  0  0  0
   29.5468    6.2103   -3.6144 C   0  0  0  0  0  0  0  0  0  0  0  0
   13.2726   12.1225  -18.8890 C   0  0  0  0  0  0  0  0  0  0  0  0
   27.3110    7.0355   -4.4809 C   0  0  0  0  0  0  0  0  0  0  0  0
   10.6226   11.8553  -20.1873 C   0  0  0  0  0  0  0  0  0  0  0  0
   28.8783    5.7410   -2.3166 C   0  0  0  0  0  0  0  0  0  0  0  0
   14.0067    9.9730  -19.9683 C   0  0  0  0  0  0  0  0  0  0  0  0
   12.1086   10.0351  -18.3084 C   0  0  0  0  0  0  0  0  0  0  0  0
   28.2245    4.7889   -5.2108 C   0  0  0  0  0  0  0  0  0  0  0  0
   29.2850    6.8836   -5.9873 C   0  0  0  0  0  0  0  0  0  0  0  0
   12.3324   13.3067  -18.8454 C   0  0  0  0  0  0  0  0  0  0  0  0
   26.7513    7.0118   -3.0692 C   0  0  0  0  0  0  0  0  0  0  0  0
   11.0223   13.1868  -19.5650 C   0  0  0  0  0  0  0  0  0  0  0  0
   27.6743    6.5806   -1.9437 C   0  0  0  0  0  0  0  0  0  0  0  0
   14.4582   12.0235  -17.9609 C   0  0  0  0  0  0  0  0  0  0  0  0
   26.3760    7.4826   -5.5698 C   0  0  0  0  0  0  0  0  0  0  0  0
   12.9643   14.6811  -18.5623 C   0  0  0  0  0  0  0  0  0  0  0  0
   25.4115    7.6580   -2.7208 C   0  0  0  0  0  0  0  0  0  0  0  0
   15.6553   12.1711  -18.4191 C   0  0  0  0  0  0  0  0  0  0  0  0
   26.8679    7.8948   -6.7101 C   0  0  0  0  0  0  0  0  0  0  0  0
   16.7981   11.9500  -17.4516 C   0  0  0  0  0  0  0  0  0  0  0  0
   25.9120    8.3786   -7.7874 C   0  0  0  0  0  0  0  0  0  0  0  0
   17.3606   13.1245  -16.6971 C   0  0  0  0  0  0  0  0  0  0  0  0
   25.2635    9.7360   -7.6823 C   0  0  0  0  0  0  0  0  0  0  0  0
   17.2419   10.6961  -17.2867 C   0  0  0  0  0  0  0  0  0  0  0  0
   25.6946    7.5030   -8.7780 C   0  0  0  0  0  0  0  0  0  0  0  0
   18.3002   10.3506  -16.2638 C   0  0  0  0  0  0  0  0  0  0  0  0
   24.8222    7.7882   -9.9843 C   0  0  0  0  0  0  0  0  0  0  0  0
   18.2618   11.0056  -15.1029 C   0  0  0  0  0  0  0  0  0  0  0  0
   23.5008    7.9635   -9.8047 C   0  0  0  0  0  0  0  0  0  0  0  0
   19.2866   10.8350  -13.9893 C   0  0  0  0  0  0  0  0  0  0  0  0
   22.5870    8.1536  -11.0230 C   0  0  0  0  0  0  0  0  0  0  0  0
   20.2815    9.9851  -14.2014 C   0  0  0  0  0  0  0  0  0  0  0  0
   23.1901    8.4566  -12.1888 C   0  0  0  0  0  0  0  0  0  0  0  0
   19.1933   11.6319  -12.6971 C   0  0  0  0  0  0  0  0  0  0  0  0
   21.0882    8.0990  -10.8715 C   0  0  0  0  0  0  0  0  0  0  0  0
   21.3300    9.6072  -13.1877 C   0  0  0  0  0  0  0  0  0  0  0  0
   22.3899    8.7969  -13.4284 C   0  0  0  0  0  0  0  0  0  0  0  0
   12.3064   11.4120  -21.4269 H   0  0  0  0  0  0  0  0  0  0  0  0
   11.4245    9.9979  -20.8420 H   0  0  0  0  0  0  0  0  0  0  0  0
   30.3571    5.5492   -3.8411 H   0  0  0  0  0  0  0  0  0  0  0  0
   29.8870    7.2129   -3.4595 H   0  0  0  0  0  0  0  0  0  0  0  0
   10.0400   12.0557  -21.0621 H   0  0  0  0  0  0  0  0  0  0  0  0
   10.0777   11.3186  -19.4389 H   0  0  0  0  0  0  0  0  0  0  0  0
   28.5628    4.7262   -2.4415 H   0  0  0  0  0  0  0  0  0  0  0  0
   29.5965    5.8374   -1.5293 H   0  0  0  0  0  0  0  0  0  0  0  0
   14.4902   10.5082  -20.7586 H   0  0  0  0  0  0  0  0  0  0  0  0
   14.7018    9.8083  -19.1717 H   0  0  0  0  0  0  0  0  0  0  0  0
   13.6571    9.0314  -20.3371 H   0  0  0  0  0  0  0  0  0  0  0  0
   11.2820   10.6151  -17.9542 H   0  0  0  0  0  0  0  0  0  0  0  0
   11.7538    9.0936  -18.6726 H   0  0  0  0  0  0  0  0  0  0  0  0
   12.7983    9.8706  -17.5071 H   0  0  0  0  0  0  0  0  0  0  0  0
   27.7279    4.2998   -4.3989 H   0  0  0  0  0  0  0  0  0  0  0  0
   27.5781    4.8103   -6.0632 H   0  0  0  0  0  0  0  0  0  0  0  0
   29.1193    4.2555   -5.4550 H   0  0  0  0  0  0  0  0  0  0  0  0
   29.5471    7.8896   -5.7338 H   0  0  0  0  0  0  0  0  0  0  0  0
   30.1713    6.3332   -6.2252 H   0  0  0  0  0  0  0  0  0  0  0  0
   28.6301    6.8880   -6.8335 H   0  0  0  0  0  0  0  0  0  0  0  0
   14.3111   11.8371  -16.9565 H   0  0  0  0  0  0  0  0  0  0  0  0
   25.3553    7.4646   -5.4193 H   0  0  0  0  0  0  0  0  0  0  0  0
   13.8903   14.5477  -18.0430 H   0  0  0  0  0  0  0  0  0  0  0  0
   13.1437   15.1884  -19.4870 H   0  0  0  0  0  0  0  0  0  0  0  0
   12.2980   15.2627  -17.9598 H   0  0  0  0  0  0  0  0  0  0  0  0
   24.8873    7.9002   -3.6216 H   0  0  0  0  0  0  0  0  0  0  0  0
   24.8266    6.9755   -2.1403 H   0  0  0  0  0  0  0  0  0  0  0  0
   25.5822    8.5510   -2.1563 H   0  0  0  0  0  0  0  0  0  0  0  0
   15.8264   12.4290  -19.4037 H   0  0  0  0  0  0  0  0  0  0  0  0
   27.8867    7.8913   -6.8748 H   0  0  0  0  0  0  0  0  0  0  0  0
   16.8508   14.0169  -16.9947 H   0  0  0  0  0  0  0  0  0  0  0  0
   17.2269   12.9708  -15.6467 H   0  0  0  0  0  0  0  0  0  0  0  0
   18.4040   13.2209  -16.9135 H   0  0  0  0  0  0  0  0  0  0  0  0
   25.6103   10.2294   -6.7984 H   0  0  0  0  0  0  0  0  0  0  0  0
   25.5193   10.3210   -8.5410 H   0  0  0  0  0  0  0  0  0  0  0  0
   24.2009    9.6208   -7.6328 H   0  0  0  0  0  0  0  0  0  0  0  0
   16.8497    9.9445  -17.8752 H   0  0  0  0  0  0  0  0  0  0  0  0
   26.1488    6.5785   -8.7159 H   0  0  0  0  0  0  0  0  0  0  0  0
   19.0217    9.6381  -16.4559 H   0  0  0  0  0  0  0  0  0  0  0  0
   25.2354    7.8470  -10.9281 H   0  0  0  0  0  0  0  0  0  0  0  0
   17.4880   11.6709  -14.9491 H   0  0  0  0  0  0  0  0  0  0  0  0
   23.1034    7.9701   -8.8524 H   0  0  0  0  0  0  0  0  0  0  0  0
   20.3427    9.5479  -15.1342 H   0  0  0  0  0  0  0  0  0  0  0  0
   24.2210    8.4568  -12.2383 H   0  0  0  0  0  0  0  0  0  0  0  0
   18.3238   12.2549  -12.7242 H   0  0  0  0  0  0  0  0  0  0  0  0
   19.1246   10.9595  -11.8675 H   0  0  0  0  0  0  0  0  0  0  0  0
   20.0660   12.2419  -12.5905 H   0  0  0  0  0  0  0  0  0  0  0  0
   20.8408    7.8399   -9.8633 H   0  0  0  0  0  0  0  0  0  0  0  0
   20.6709    9.0558  -11.1065 H   0  0  0  0  0  0  0  0  0  0  0  0
   20.6890    7.3627  -11.5373 H   0  0  0  0  0  0  0  0  0  0  0  0
   21.2339    9.9952  -12.2363 H   0  0  0  0  0  0  0  0  0  0  0  0
   22.6289    8.4449  -14.3686 H   0  0  0  0  0  0  0  0  0  0  0  0
  3  5  1  0
  4  6  1  0
  3  7  1  0
  4  8  1  0
  5  9  1  0
  6 10  1  0
  3 11  1  1
  3 12  1  0
  4 13  1  1
  4 14  1  0
  7 15  2  0
  8 16  2  0
  1 17  2  0
  9 17  1  0
 15 17  1  0
 16 18  1  0
 10 18  1  0
  2 18  2  0
  7 19  1  0
  8 20  1  0
 15 21  1  0
 16 22  1  0
 19 23  2  3
 20 24  2  3
 23 25  1  0
 24 26  1  0
 25 27  1  0
 26 28  1  0
 25 29  2  3
 26 30  2  3
 29 31  1  0
 30 32  1  0
 31 33  2  3
 32 34  2  3
 33 35  1  0
 34 36  1  0
 35 37  2  3
 36 38  2  3
 35 39  1  0
 36 40  1  0
 37 41  1  0
 41 42  2  3
 38 42  1  0
  5 43  1  0
  5 44  1  0
  6 45  1  0
  6 46  1  0
  9 47  1  0
  9 48  1  0
 10 49  1  0
 10 50  1  0
 11 51  1  0
 11 52  1  0
 11 53  1  0
 12 54  1  0
 12 55  1  0
 12 56  1  0
 13 57  1  0
 13 58  1  0
 13 59  1  0
 14 60  1  0
 14 61  1  0
 14 62  1  0
 19 63  1  0
 20 64  1  0
 21 65  1  0
 21 66  1  0
 21 67  1  0
 22 68  1  0
 22 69  1  0
 22 70  1  0
 23 71  1  0
 24 72  1  0
 27 73  1  0
 27 74  1  0
 27 75  1  0
 28 76  1  0
 28 77  1  0
 28 78  1  0
 29 79  1  0
 30 80  1  0
 31 81  1  0
 32 82  1  0
 33 83  1  0
 34 84  1  0
 37 85  1  0
 38 86  1  0
 39 87  1  0
 39 88  1  0
 39 89  1  0
 40 90  1  0
 40 91  1  0
 40 92  1  0
 41 93  1  0
 42 94  1  0
M  END
