1JJE_BYS_A_250
     RDKit          3D

 43 45  0  0  0  0  0  0  0  0999 V2000
   -3.0830   -1.4903    1.9855 C   0  0  2  0  0  0  0  0  0  0  0  0
   -3.8755   -0.7574    3.0443 C   0  0  0  0  0  0  0  0  0  0  0  0
   -3.4838    0.3757    3.4350 O   0  0  0  0  0  0  0  0  0  0  0  0
   -4.9955   -1.3242    3.6378 O   0  0  0  0  0  0  0  0  0  0  0  0
   -1.5514   -1.1996    1.9957 C   0  0  0  0  0  0  0  0  0  0  0  0
   -1.0750    0.1094    1.4040 C   0  0  0  0  0  0  0  0  0  0  0  0
   -0.2746    0.9828    2.1627 C   0  0  0  0  0  0  0  0  0  0  0  0
    0.1209    2.2181    1.6406 C   0  0  0  0  0  0  0  0  0  0  0  0
   -0.3106    2.6126    0.3726 C   0  0  0  0  0  0  0  0  0  0  0  0
   -1.1563    1.7818   -0.3651 C   0  0  0  0  0  0  0  0  0  0  0  0
   -1.5537    0.5464    0.1551 C   0  0  0  0  0  0  0  0  0  0  0  0
   -3.8166   -1.5408    0.6041 C   0  0  2  0  0  0  0  0  0  0  0  0
   -4.9883   -2.4902    0.6654 C   0  0  0  0  0  0  0  0  0  0  0  0
   -5.2163   -3.2970   -0.2760 O   0  0  0  0  0  0  0  0  0  0  0  0
   -5.8002   -2.5054    1.7956 O   0  0  0  0  0  0  0  0  0  0  0  0
   -2.9673   -1.8140   -0.6667 C   0  0  0  0  0  0  0  0  0  0  0  0
   -1.8722   -0.8105   -0.9240 C   0  0  0  0  0  0  0  0  0  0  0  0
   -1.9862    0.5139   -0.4406 C   0  0  0  0  0  0  0  0  0  0  0  0
   -0.9509    1.4021   -0.7156 C   0  0  0  0  0  0  0  0  0  0  0  0
   -0.8311    2.7258   -0.3389 O   0  0  0  0  0  0  0  0  0  0  0  0
    0.4106    3.2233   -0.8569 C   0  0  0  0  0  0  0  0  0  0  0  0
    0.9954    2.1144   -1.5541 O   0  0  0  0  0  0  0  0  0  0  0  0
    0.1365    1.0385   -1.4404 C   0  0  0  0  0  0  0  0  0  0  0  0
    0.2810   -0.2438   -1.9590 C   0  0  0  0  0  0  0  0  0  0  0  0
   -0.7417   -1.1743   -1.7031 C   0  0  0  0  0  0  0  0  0  0  0  0
   -3.1186   -2.5494    2.3349 H   0  0  0  0  0  0  0  0  0  0  0  0
   -5.5032   -0.8364    4.3659 H   0  0  0  0  0  0  0  0  0  0  0  0
   -1.0260   -2.0377    1.4889 H   0  0  0  0  0  0  0  0  0  0  0  0
   -1.2006   -1.2488    3.0506 H   0  0  0  0  0  0  0  0  0  0  0  0
    0.0479    0.7078    3.1580 H   0  0  0  0  0  0  0  0  0  0  0  0
    0.7552    2.8731    2.2236 H   0  0  0  0  0  0  0  0  0  0  0  0
   -0.0060    3.5701   -0.0296 H   0  0  0  0  0  0  0  0  0  0  0  0
   -1.5167    2.1014   -1.3344 H   0  0  0  0  0  0  0  0  0  0  0  0
   -2.2538   -0.0565   -0.4082 H   0  0  0  0  0  0  0  0  0  0  0  0
   -4.2697   -0.5350    0.4585 H   0  0  0  0  0  0  0  0  0  0  0  0
   -6.5818   -3.1459    1.8654 H   0  0  0  0  0  0  0  0  0  0  0  0
   -2.5591   -2.8380   -0.6535 H   0  0  0  0  0  0  0  0  0  0  0  0
   -3.6442   -1.7848   -1.5491 H   0  0  0  0  0  0  0  0  0  0  0  0
   -2.8463    0.8389    0.1298 H   0  0  0  0  0  0  0  0  0  0  0  0
    0.2239    4.0623   -1.5595 H   0  0  0  0  0  0  0  0  0  0  0  0
    1.0717    3.5439   -0.0246 H   0  0  0  0  0  0  0  0  0  0  0  0
    1.1515   -0.5155   -2.5413 H   0  0  0  0  0  0  0  0  0  0  0  0
   -0.6506   -2.1749   -2.1037 H   0  0  0  0  0  0  0  0  0  0  0  0
  1  2  1  0
  2  3  2  0
  2  4  1  0
  1  5  1  0
  5  6  1  0
  6  7  4  0
  7  8  4  0
  8  9  4  0
  9 10  4  0
  6 11  4  0
 10 11  4  0
  1 12  1  0
 12 13  1  0
 13 14  2  0
 13 15  1  0
 12 16  1  0
 16 17  1  0
 17 18  4  0
 18 19  4  0
 19 20  1  0
 20 21  1  0
 21 22  1  0
 19 23  4  0
 22 23  1  0
 23 24  4  0
 17 25  4  0
 24 25  4  0
  1 26  1  6
  4 27  1  0
  5 28  1  0
  5 29  1  0
  7 30  1  0
  8 31  1  0
  9 32  1  0
 10 33  1  0
 11 34  1  0
 12 35  1  1
 15 36  1  0
 16 37  1  0
 16 38  1  0
 18 39  1  0
 21 40  1  0
 21 41  1  0
 24 42  1  0
 25 43  1  0
M  END
