7D9L_GSF_A_305
     RDKit          3D

 22 21  0  0  0  0  0  0  0  0999 V2000
   17.4094   19.2339   19.4356 C   0  0  0  0  0  0  0  0  0  0  0  0
   16.0955   19.7257   19.1461 C   0  0  0  0  0  0  0  0  0  0  0  0
   16.2677   21.1209   18.5949 C   0  0  0  0  0  0  0  0  0  0  0  0
   16.6033   22.1771   19.2207 O   0  0  0  0  0  0  0  0  0  0  0  0
   19.2661   19.7476   20.9373 C   0  0  0  0  0  0  0  0  0  0  0  0
   19.7236   20.6858   20.2232 O   0  0  0  0  0  0  0  0  0  0  0  0
   20.0416   19.0509   21.6209 O   0  0  0  0  0  0  0  0  0  0  0  0
   16.9658   20.6180   21.3401 N   0  0  0  0  0  0  0  0  0  0  0  0
   17.7841   19.4428   20.9079 C   0  0  1  0  0  0  0  0  0  0  0  0
   15.8865   21.2181   17.3514 N   0  0  0  0  0  0  0  0  0  0  0  0
   15.8741   22.4938   16.7192 C   0  0  1  0  0  0  0  0  0  0  0  0
   16.4313   22.3710   15.3098 C   0  0  0  0  0  0  0  0  0  0  0  0
   18.1563   21.8911   15.2633 S   0  0  0  0  0  0  0  0  0  0  0  0
   18.7526   22.7819   14.2823 O   0  0  0  0  0  0  0  0  0  0  0  0
   18.1376   20.4677   14.6186 O   0  0  0  0  0  0  0  0  0  0  0  0
   14.4958   23.0763   16.6338 C   0  0  0  0  0  0  0  0  0  0  0  0
   13.6328   22.6049   17.3075 O   0  0  0  0  0  0  0  0  0  0  0  0
   14.2626   24.0498   15.7474 N   0  0  0  0  0  0  0  0  0  0  0  0
   12.9811   24.7365   15.7024 C   0  0  0  0  0  0  0  0  0  0  0  0
   11.8519   24.0446   16.3981 C   0  0  0  0  0  0  0  0  0  0  0  0
   11.6819   24.4189   17.5713 O   0  0  0  0  0  0  0  0  0  0  0  0
   11.1614   23.1382   15.8280 O   0  0  0  0  0  0  0  0  0  0  0  0
  1  2  1  0
  2  3  1  0
  3  4  2  0
  5  6  1  0
  5  7  2  0
  1  9  1  0
  5  9  1  0
  9  8  1  6
  3 10  1  0
 10 11  1  0
 11 12  1  6
 12 13  1  0
 13 14  2  0
 13 15  1  6
 11 16  1  0
 16 17  2  0
 16 18  1  0
 18 19  1  0
 19 20  1  0
 20 21  1  0
 20 22  2  0
M  END
