7RUI_7QZ_A_201
     RDKit          3D

 51 56  0  0  0  0  0  0  0  0999 V2000
   13.8518   18.3587    7.4412 C   0  0  0  0  0  0  0  0  0  0  0  0
   13.7901   14.3903    4.5502 C   0  0  0  0  0  0  0  0  0  0  0  0
   15.0630   14.5094    3.9583 C   0  0  0  0  0  0  0  0  0  0  0  0
   15.6188   13.5592    3.0863 C   0  0  0  0  0  0  0  0  0  0  0  0
   14.9160   12.3997    2.8895 C   0  0  0  0  0  0  0  0  0  0  0  0
   13.6717   12.2255    3.5328 C   0  0  0  0  0  0  0  0  0  0  0  0
   13.1079   13.2263    4.3594 C   0  0  0  0  0  0  0  0  0  0  0  0
   14.0440   10.4098    2.2402 C   0  0  0  0  0  0  0  0  0  0  0  0
   15.1389   11.2428    2.0930 C   0  0  0  0  0  0  0  0  0  0  0  0
   11.8221   10.4554    3.4496 C   0  0  1  0  0  0  0  0  0  0  0  0
   11.9243    9.5199    4.7274 C   0  0  0  0  0  0  0  0  0  0  0  0
   10.8788   11.5546    3.7770 C   0  0  0  0  0  0  0  0  0  0  0  0
   10.5058   13.8286    4.3847 C   0  0  0  0  0  0  0  0  0  0  0  0
   11.7286   17.5854    6.5487 C   0  0  0  0  0  0  0  0  0  0  0  0
   11.0191   16.5835    5.7520 C   0  0  0  0  0  0  0  0  0  0  0  0
   11.7429   15.6005    5.1635 C   0  0  0  0  0  0  0  0  0  0  0  0
   13.1643   15.4811    5.2586 C   0  0  0  0  0  0  0  0  0  0  0  0
   13.7970   16.4122    6.0148 C   0  0  0  0  0  0  0  0  0  0  0  0
   13.0974   17.4053    6.6117 N   0  0  0  0  0  0  0  0  0  0  0  0
   13.1658   10.9603    3.1485 N   0  0  0  0  0  0  0  0  0  0  0  0
   11.3745   12.8122    4.0843 N   0  0  0  0  0  0  0  0  0  0  0  0
    9.1495   13.5731    4.4349 C   0  0  0  0  0  0  0  0  0  0  0  0
    8.7347   12.3041    4.1777 C   0  0  0  0  0  0  0  0  0  0  0  0
    9.5508   11.2983    3.8290 C   0  0  0  0  0  0  0  0  0  0  0  0
   11.3021    9.6183    2.2279 C   0  0  0  0  0  0  0  0  0  0  0  0
   11.5328    9.8691    0.9133 C   0  0  0  0  0  0  0  0  0  0  0  0
   11.0514    9.0577   -0.1441 C   0  0  0  0  0  0  0  0  0  0  0  0
   10.2302    7.9824    0.1453 C   0  0  0  0  0  0  0  0  0  0  0  0
    9.9597    7.7813    1.5065 C   0  0  0  0  0  0  0  0  0  0  0  0
   10.4476    8.5436    2.5281 N   0  0  0  0  0  0  0  0  0  0  0  0
   16.8416   13.7003    2.4236 N   0  0  0  0  0  0  0  0  0  0  0  0
   17.4519   15.1413    1.9192 S   0  0  2  0  0  0  0  0  0  0  0  0
   19.1276   15.3034    2.5666 C   0  0  0  0  0  0  0  0  0  0  0  0
   19.1474   15.3412    4.0141 C   0  0  1  0  0  0  0  0  0  0  0  0
   18.8639   14.2017    4.5951 F   0  0  0  0  0  0  0  0  0  0  0  0
   20.4330   15.6003    4.5494 F   0  0  0  0  0  0  0  0  0  0  0  0
   18.3758   16.2637    4.6678 F   0  0  0  0  0  0  0  0  0  0  0  0
   16.7405   16.1729    2.5121 O   0  0  0  0  0  0  0  0  0  0  0  0
   17.5217   15.0667    0.4921 O   0  0  0  0  0  0  0  0  0  0  0  0
    9.6690   16.7413    5.6580 N   0  0  0  0  0  0  0  0  0  0  0  0
    8.7406   16.8722    6.6701 C   0  0  0  0  0  0  0  0  0  0  0  0
    8.8275   18.0386    7.4070 N   0  0  0  0  0  0  0  0  0  0  0  0
    7.7907   18.4719    8.2567 C   0  0  0  0  0  0  0  0  0  0  0  0
    6.5195   18.7623    7.9473 C   0  0  0  0  0  0  0  0  0  0  0  0
    5.5645   19.1839    8.8901 C   0  0  0  0  0  0  0  0  0  0  0  0
    5.9192   19.2585   10.1987 C   0  0  0  0  0  0  0  0  0  0  0  0
    7.1998   18.9417   10.5584 C   0  0  0  0  0  0  0  0  0  0  0  0
    8.1033   18.5517    9.5498 C   0  0  0  0  0  0  0  0  0  0  0  0
    9.3574   18.2976    9.8410 F   0  0  0  0  0  0  0  0  0  0  0  0
    7.9272   15.9700    6.8414 O   0  0  0  0  0  0  0  0  0  0  0  0
   11.1464   18.5200    7.1205 O   0  0  0  0  0  0  0  0  0  0  0  0
  2  3  2  0
  3  4  1  0
  4  5  2  0
  5  6  1  0
  6  7  2  0
  2  7  1  0
  8  9  2  0
  5  9  1  0
 10 11  1  1
 10 12  1  0
 14 15  1  0
 15 16  2  0
 16 17  1  0
  2 17  1  0
 17 18  2  0
 14 19  1  0
 18 19  1  0
  1 19  1  0
 10 20  1  0
  8 20  1  0
  6 20  1  0
 12 21  1  0
 13 21  2  0
 13 22  1  0
 22 23  2  0
 23 24  1  0
 12 24  2  0
 10 25  1  0
 25 26  2  0
 26 27  1  0
 27 28  2  0
 28 29  1  0
 29 30  2  0
 25 30  1  0
  4 31  1  0
 31 32  1  0
 32 33  1  1
 33 34  1  0
 34 35  1  1
 34 36  1  0
 34 37  1  0
 32 38  2  0
 32 39  2  0
 15 40  1  0
 40 41  1  0
 41 42  1  0
 42 43  1  0
 43 44  2  0
 44 45  1  0
 45 46  2  0
 46 47  1  0
 47 48  2  0
 43 48  1  0
 48 49  1  0
 41 50  2  0
 14 51  2  0
M  END
