
     RDKit          3D

 28 30  0  0  0  0  0  0  0  0999 V2000
   19.6200    1.2406   -0.7028 N   0  0  0  0  0  0  0  0  0  0  0  0
   19.3300    0.6835    0.6134 C   0  0  0  0  0  0  0  0  0  0  0  0
   26.0656    3.0788    4.9685 O   0  0  0  0  0  0  0  0  0  0  0  0
   20.4142    1.0262    1.6020 C   0  0  0  0  0  0  0  0  0  0  0  0
   28.9099    2.6610    2.8115 C   0  0  0  0  0  0  0  0  0  0  0  0
   26.9532    2.0659    1.2914 C   0  0  0  0  0  0  0  0  0  0  0  0
   27.7090    2.4093   -0.0093 C   0  0  1  0  0  0  0  0  0  0  0  0
   27.9560    1.1313   -0.8304 C   0  0  0  0  0  0  0  0  0  0  0  0
   29.3645    0.5986   -0.6837 C   0  0  0  0  0  0  0  0  0  0  0  0
   30.1163    0.2543   -1.8152 C   0  0  0  0  0  0  0  0  0  0  0  0
   31.4224   -0.2179   -1.6792 C   0  0  0  0  0  0  0  0  0  0  0  0
   31.9888   -0.3492   -0.4127 C   0  0  0  0  0  0  0  0  0  0  0  0
   31.2498   -0.0092    0.7191 C   0  0  0  0  0  0  0  0  0  0  0  0
   29.9435    0.4635    0.5854 C   0  0  0  0  0  0  0  0  0  0  0  0
   20.8491    0.0794    2.5395 C   0  0  0  0  0  0  0  0  0  0  0  0
   21.9640    2.6340    2.5563 C   0  0  0  0  0  0  0  0  0  0  0  0
   20.9745    2.3100    1.6258 C   0  0  0  0  0  0  0  0  0  0  0  0
   21.8392    0.4037    3.4708 C   0  0  0  0  0  0  0  0  0  0  0  0
   22.4123    1.6818    3.4817 C   0  0  0  0  0  0  0  0  0  0  0  0
   23.4619    2.0506    4.4982 C   0  0  0  0  0  0  0  0  0  0  0  0
   25.9246    2.0472    4.3143 C   0  0  0  0  0  0  0  0  0  0  0  0
   27.0941    1.3095    3.6240 C   0  0  2  0  0  0  0  0  0  0  0  0
   28.2818    1.1875    4.5801 C   0  0  0  0  0  0  0  0  0  0  0  0
   29.0653    2.4696    4.3144 C   0  0  0  0  0  0  0  0  0  0  0  0
   24.7123    1.3977    4.1892 N   0  0  0  0  0  0  0  0  0  0  0  0
   27.6137    2.0784    2.4989 N   0  0  0  0  0  0  0  0  0  0  0  0
   27.0325    3.4902   -0.7679 N   0  0  0  0  0  0  0  0  0  0  0  0
   25.7413    1.8229    1.2408 O   0  0  0  0  0  0  0  0  0  0  0  0
  1  2  1  0
  2  4  1  0
  6  7  1  0
  7  8  1  0
  8  9  1  0
  9 10  4  0
 10 11  4  0
 11 12  4  0
 12 13  4  0
  9 14  4  0
 13 14  4  0
  4 15  4  0
 16 17  4  0
  4 17  4  0
 15 18  4  0
 18 19  4  0
 16 19  4  0
 19 20  1  0
  3 21  2  0
 22 21  1  1
 22 23  1  0
 23 24  1  0
  5 24  1  0
 20 25  1  0
 21 25  1  0
  5 26  1  0
 22 26  1  0
  6 26  1  0
  7 27  1  6
  6 28  2  0
M  END
