7JNB_A2G_A_503
     RDKit          3D

 30 30  0  0  0  0  0  0  0  0999 V2000
   58.9810    7.6191  112.5057 O   0  0  0  0  0  0  0  0  0  0  0  0
   57.5690    7.7802  112.5137 C   0  0  2  0  0  0  0  0  0  0  0  0
   57.2509    9.1492  112.4736 O   0  0  0  0  0  0  0  0  0  0  0  0
   56.8955    7.0789  113.7137 C   0  0  2  0  0  0  0  0  0  0  0  0
   55.4345    7.1774  113.6100 N   0  0  0  0  0  0  0  0  0  0  0  0
   57.3919    7.6552  115.0613 C   0  0  1  0  0  0  0  0  0  0  0  0
   57.4669    6.6115  116.0022 O   0  0  0  0  0  0  0  0  0  0  0  0
   58.7620    8.3555  114.9068 C   0  0  1  0  0  0  0  0  0  0  0  0
   59.4518    8.3638  116.1320 O   0  0  0  0  0  0  0  0  0  0  0  0
   59.6234    7.7163  113.7786 C   0  0  1  0  0  0  0  0  0  0  0  0
   60.1920    6.3404  114.1758 C   0  0  2  0  0  0  0  0  0  0  0  0
   59.5289    5.8471  115.3090 O   0  0  0  0  0  0  0  0  0  0  0  0
   54.6057    6.0468  113.3047 C   0  0  0  0  0  0  0  0  0  0  0  0
   55.0447    5.1042  112.5915 O   0  0  0  0  0  0  0  0  0  0  0  0
   53.1985    5.9993  113.8036 C   0  0  2  0  0  0  0  0  0  0  0  0
   57.1915    7.2938  111.5844 H   0  0  0  0  0  0  0  0  0  0  0  0
   56.2674    9.2243  112.5853 H   0  0  0  0  0  0  0  0  0  0  0  0
   57.1854    6.0057  113.6661 H   0  0  0  0  0  0  0  0  0  0  0  0
   54.9880    8.1228  113.6079 H   0  0  0  0  0  0  0  0  0  0  0  0
   56.6690    8.4263  115.4215 H   0  0  0  0  0  0  0  0  0  0  0  0
   58.3813    6.6296  116.3889 H   0  0  0  0  0  0  0  0  0  0  0  0
   58.5639    9.4139  114.6155 H   0  0  0  0  0  0  0  0  0  0  0  0
   60.2598    7.7993  116.0121 H   0  0  0  0  0  0  0  0  0  0  0  0
   60.4997    8.3872  113.6396 H   0  0  0  0  0  0  0  0  0  0  0  0
   61.2866    6.3951  114.3634 H   0  0  0  0  0  0  0  0  0  0  0  0
   60.0350    5.6172  113.3482 H   0  0  0  0  0  0  0  0  0  0  0  0
   58.8655    5.1827  114.9864 H   0  0  0  0  0  0  0  0  0  0  0  0
   53.1398    5.3184  114.6780 H   0  0  0  0  0  0  0  0  0  0  0  0
   52.5290    5.6235  113.0018 H   0  0  0  0  0  0  0  0  0  0  0  0
   52.8579    7.0118  114.1080 H   0  0  0  0  0  0  0  0  0  0  0  0
  1  2  1  0
  2  3  1  0
  2  4  1  0
  4  5  1  0
  4  6  1  0
  6  7  1  0
  6  8  1  0
  8  9  1  0
  1 10  1  0
  8 10  1  0
 10 11  1  0
 11 12  1  0
  5 13  1  0
 13 14  2  0
 13 15  1  0
  2 16  1  6
  3 17  1  0
  4 18  1  1
  5 19  1  0
  6 20  1  1
  7 21  1  0
  8 22  1  6
  9 23  1  0
 10 24  1  6
 11 25  1  1
 11 26  1  0
 12 27  1  0
 15 28  1  1
 15 29  1  0
 15 30  1  0
M  END
