
     RDKit          3D

 35 37  0  0  0  0  0  0  0  0999 V2000
   44.8481  -16.0714    6.2532 O   0  0  0  0  0  0  0  0  0  0  0  0
   45.3549  -14.8505    7.1638 P   0  0  2  0  0  5  0  0  0  0  0  0
   44.2058  -14.1630    7.8199 O   0  0  0  0  0  0  0  0  0  0  0  0
   46.2524  -13.9777    6.1683 O   0  0  0  0  0  0  0  0  0  0  0  0
   46.7845  -12.7669    6.6756 C   0  0  1  0  0  0  0  0  0  0  0  0
   48.1839  -12.6646    6.3808 O   0  0  0  0  0  0  0  0  0  0  0  0
   48.4811  -12.6541    4.9785 C   0  0  2  0  0  0  0  0  0  0  0  0
   49.9954  -12.5475    4.8318 C   0  0  0  0  0  0  0  0  0  0  0  0
   46.0371  -11.5588    6.0750 C   0  0  2  0  0  0  0  0  0  0  0  0
   44.6344  -11.5910    6.3672 O   0  0  0  0  0  0  0  0  0  0  0  0
   46.2534  -11.5265    4.5515 C   0  0  1  0  0  0  0  0  0  0  0  0
   45.5470  -10.3723    3.9363 N   0  0  0  0  0  0  0  0  0  0  0  0
   47.7665  -11.4980    4.2459 C   0  0  2  0  0  0  0  0  0  0  0  0
   47.9693  -11.5540    2.8255 O   0  0  0  0  0  0  0  0  0  0  0  0
   46.3830  -15.5888    8.1325 O   0  0  0  0  0  0  0  0  0  0  0  0
   47.3734  -16.7048    7.5870 P   0  0  2  0  0  5  0  0  0  0  0  0
   48.7019  -16.4436    8.4519 O   0  0  0  0  0  0  0  0  0  0  0  0
   47.5983  -16.7632    6.1137 O   0  0  0  0  0  0  0  0  0  0  0  0
   46.8549  -18.0621    8.2651 O   0  0  0  0  0  0  0  0  0  0  0  0
   45.6252  -18.5949    7.8052 C   0  0  0  0  0  0  0  0  0  0  0  0
   44.6212  -18.6212    8.9588 C   0  0  1  0  0  0  0  0  0  0  0  0
   45.2206  -19.2599   10.1054 O   0  0  0  0  0  0  0  0  0  0  0  0
   44.1675  -17.2339    9.4083 C   0  0  1  0  0  0  0  0  0  0  0  0
   43.0245  -16.7895    8.6871 O   0  0  0  0  0  0  0  0  0  0  0  0
   43.8328  -17.4421   10.8700 C   0  0  0  0  0  0  0  0  0  0  0  0
   44.6748  -18.6458   11.2828 C   0  0  2  0  0  0  0  0  0  0  0  0
   45.7647  -18.3773   12.2172 N   0  0  0  0  0  0  0  0  0  0  0  0
   45.5999  -18.6411   13.5703 C   0  0  0  0  0  0  0  0  0  0  0  0
   44.5884  -19.1344   14.0693 O   0  0  0  0  0  0  0  0  0  0  0  0
   46.6691  -18.3346   14.3734 N   0  0  0  0  0  0  0  0  0  0  0  0
   46.9360  -17.8121   11.7351 C   0  0  0  0  0  0  0  0  0  0  0  0
   47.9876  -17.5402   12.5206 C   0  0  0  0  0  0  0  0  0  0  0  0
   49.2742  -16.9502   12.0403 C   0  0  0  0  0  0  0  0  0  0  0  0
   47.8790  -17.8551   13.9631 C   0  0  0  0  0  0  0  0  0  0  0  0
   48.8246  -17.7032   14.7352 O   0  0  0  0  0  0  0  0  0  0  0  0
  2  1  1  6
  2  3  2  0
  2  4  1  0
  5  4  1  6
  5  6  1  0
  6  7  1  0
  7  8  1  1
  5  9  1  0
  9 10  1  6
  9 11  1  0
 11 12  1  1
  7 13  1  0
 11 13  1  0
 13 14  1  6
  2 15  1  0
 15 16  1  0
 16 17  1  1
 16 18  2  0
 16 19  1  0
 19 20  1  0
 21 20  1  6
 21 22  1  0
 21 23  1  0
 23 24  1  6
 23 25  1  0
 22 26  1  0
 25 26  1  0
 26 27  1  1
 27 28  4  0
 28 29  2  0
 28 30  4  0
 27 31  4  0
 31 32  4  0
 32 33  1  0
 30 34  4  0
 32 34  4  0
 34 35  2  0
M  END
