7SED_8VD_A_401
     RDKit          3D

 30 31  0  0  0  0  0  0  0  0999 V2000
   15.4444   16.6642    3.1602 C   0  0  0  0  0  0  0  0  0  0  0  0
   10.5897   16.1036    5.0137 N   0  0  0  0  0  0  0  0  0  0  0  0
   12.4575   17.3498    3.8505 C   0  0  1  0  0  0  0  0  0  0  0  0
   12.8808   16.1149    6.0069 C   0  0  1  0  0  0  0  0  0  0  0  0
   14.7295   16.5553    4.4054 N   0  0  0  0  0  0  0  0  0  0  0  0
   17.1567   14.5566    0.5034 C   0  0  1  0  0  0  0  0  0  0  0  0
   16.6216   15.7323    1.2675 C   0  0  0  0  0  0  0  0  0  0  0  0
   15.9338   15.5403    2.4721 C   0  0  0  0  0  0  0  0  0  0  0  0
   13.2957   16.2528    4.5233 C   0  0  2  0  0  0  0  0  0  0  0  0
   11.3736   16.3678    6.2270 C   0  0  1  0  0  0  0  0  0  0  0  0
   10.9488   17.0212    3.9153 C   0  0  1  0  0  0  0  0  0  0  0  0
   16.3341   18.0715    1.4713 C   0  0  0  0  0  0  0  0  0  0  0  0
   18.0673   13.8699    1.2855 F   0  0  0  0  0  0  0  0  0  0  0  0
   16.1171   13.7096    0.1650 F   0  0  0  0  0  0  0  0  0  0  0  0
   17.7876   14.9752   -0.6552 F   0  0  0  0  0  0  0  0  0  0  0  0
   15.6630   17.9016    2.6390 N   0  0  0  0  0  0  0  0  0  0  0  0
   16.8065   16.9939    0.7951 N   0  0  0  0  0  0  0  0  0  0  0  0
   10.7587   15.1157    4.7094 H   0  0  0  0  0  0  0  0  0  0  0  0
   12.6457   18.3163    4.3688 H   0  0  0  0  0  0  0  0  0  0  0  0
   12.7579   17.4819    2.7897 H   0  0  0  0  0  0  0  0  0  0  0  0
   13.1406   15.0917    6.3563 H   0  0  0  0  0  0  0  0  0  0  0  0
   13.4425   16.8348    6.6414 H   0  0  0  0  0  0  0  0  0  0  0  0
   15.2877   16.7009    5.2773 H   0  0  0  0  0  0  0  0  0  0  0  0
   15.7940   14.5367    2.8485 H   0  0  0  0  0  0  0  0  0  0  0  0
   13.0892   15.2772    4.0313 H   0  0  0  0  0  0  0  0  0  0  0  0
   11.2112   17.4217    6.5462 H   0  0  0  0  0  0  0  0  0  0  0  0
   11.0052   15.7185    7.0502 H   0  0  0  0  0  0  0  0  0  0  0  0
   10.6348   16.5658    2.9500 H   0  0  0  0  0  0  0  0  0  0  0  0
   10.3732   17.9650    4.0284 H   0  0  0  0  0  0  0  0  0  0  0  0
   16.4925   19.0667    1.0794 H   0  0  0  0  0  0  0  0  0  0  0  0
  1  5  1  0
  6  7  1  0
  7  8  2  0
  1  8  1  0
  5  9  1  0
  3  9  1  0
  4  9  1  0
  4 10  1  0
  2 10  1  0
  3 11  1  0
  2 11  1  0
  6 13  1  1
  6 14  1  0
  6 15  1  0
 12 16  1  0
  1 16  2  0
 12 17  2  0
  7 17  1  0
  2 18  1  0
  3 19  1  1
  3 20  1  0
  4 21  1  1
  4 22  1  0
  5 23  1  0
  8 24  1  0
  9 25  1  6
 10 26  1  1
 10 27  1  0
 11 28  1  6
 11 29  1  0
 12 30  1  0
M  END
