
     RDKit          3D

 35 40  0  0  0  0  0  0  0  0999 V2000
   30.5685    6.3253   -5.2137 C   0  0  0  0  0  0  0  0  0  0  0  0
   31.3875    6.6781   -6.2823 C   0  0  0  0  0  0  0  0  0  0  0  0
   32.4747    5.8798   -6.6340 C   0  0  0  0  0  0  0  0  0  0  0  0
   32.7783    4.7124   -5.9118 C   0  0  0  0  0  0  0  0  0  0  0  0
   33.9552    3.8129   -6.2095 C   0  0  2  0  0  0  0  0  0  0  0  0
   34.7309    1.5141   -7.1227 C   0  0  0  0  0  0  0  0  0  0  0  0
   36.2034    3.2585   -3.4147 C   0  0  0  0  0  0  0  0  0  0  0  0
   37.9178    1.6203   -0.2535 C   0  0  0  0  0  0  0  0  0  0  0  0
   28.1517    6.5562   -4.8585 C   0  0  0  0  0  0  0  0  0  0  0  0
   26.9955    7.2443   -4.5049 C   0  0  0  0  0  0  0  0  0  0  0  0
   27.0802    8.5543   -4.0610 C   0  0  0  0  0  0  0  0  0  0  0  0
   34.9489    1.2468   -8.5857 C   0  0  0  0  0  0  0  0  0  0  0  0
   34.4968    0.1381   -7.6835 C   0  0  0  0  0  0  0  0  0  0  0  0
   35.1881    2.8279   -4.2345 C   0  0  0  0  0  0  0  0  0  0  0  0
   36.5303    4.5341   -3.8954 C   0  0  0  0  0  0  0  0  0  0  0  0
   36.8251    2.4747   -2.2283 C   0  0  0  0  0  0  0  0  0  0  0  0
   36.7558    1.1063   -2.0530 C   0  0  0  0  0  0  0  0  0  0  0  0
   29.4262    7.1596   -4.8096 C   0  0  0  0  0  0  0  0  0  0  0  0
   28.3225    9.1849   -3.9997 C   0  0  0  0  0  0  0  0  0  0  0  0
   30.8951    5.1696   -4.5023 C   0  0  0  0  0  0  0  0  0  0  0  0
   29.5056    8.5135   -4.3830 C   0  0  0  0  0  0  0  0  0  0  0  0
   31.0644   10.4267   -4.9371 C   0  0  0  0  0  0  0  0  0  0  0  0
   33.5868    2.3990   -6.7110 C   0  0  0  0  0  0  0  0  0  0  0  0
   28.0543    5.2760   -5.2548 F   0  0  0  0  0  0  0  0  0  0  0  0
   34.9652    3.8312   -5.1408 N   0  0  0  0  0  0  0  0  0  0  0  0
   35.7702    4.8992   -4.9334 N   0  0  0  0  0  0  0  0  0  0  0  0
   31.9831    4.3708   -4.8282 N   0  0  0  0  0  4  0  0  0  0  0  0
   37.3864    0.6176   -0.9184 N   0  0  0  0  0  0  0  0  0  0  0  0
   30.7358    9.2372   -4.3349 N   0  0  0  0  0  0  0  0  0  0  0  0
   32.2864   10.7765   -4.5954 N   0  0  0  0  0  0  0  0  0  0  0  0
   32.7347    9.7810   -3.7784 N   0  0  0  0  0  0  0  0  0  0  0  0
   31.8227    8.8281   -3.6475 N   0  0  0  0  0  0  0  0  0  0  0  0
   32.2366    3.3521   -4.1086 O   0  0  0  0  0  1  0  0  0  0  0  0
   37.7043    3.1717   -0.9422 S   0  0  0  0  0  0  0  0  0  0  0  0
   25.4473    6.4892   -4.6272 Cl  0  0  0  0  0  0  0  0  0  0  0  0
  1  2  4  0
  2  3  4  0
  3  4  4  0
  4  5  1  0
  9 10  4  0
 10 11  4  0
  6 12  1  0
  6 13  1  0
 12 13  1  0
  7 14  4  0
  7 15  4  0
  7 16  1  0
 16 17  4  0
  1 18  1  0
  9 18  4  0
 11 19  4  0
  1 20  4  0
 18 21  4  0
 19 21  4  0
  6 23  1  0
  5 23  1  1
  9 24  1  0
  5 25  1  0
 14 25  4  0
 25 26  4  0
 15 26  4  0
  4 27  4  0
 20 27  4  0
 17 28  4  0
  8 28  4  0
 22 29  4  0
 21 29  1  0
 22 30  4  0
 30 31  4  0
 29 32  4  0
 31 32  4  0
 27 33  1  0
 16 34  4  0
  8 34  4  0
 10 35  1  0
M  CHG  2  27   1  33  -1
M  END
