7SSM_B7L_A_4000
     RDKit          3D

 25 28  0  0  0  0  0  0  0  0999 V2000
  -18.2317  -24.3923    0.6261 C   0  0  0  0  0  0  0  0  0  0  0  0
  -10.7513  -20.7020    3.6078 C   0  0  0  0  0  0  0  0  0  0  0  0
  -16.6617  -21.2305    1.9475 C   0  0  0  0  0  0  0  0  0  0  0  0
  -10.3309  -22.7817    4.2860 C   0  0  0  0  0  0  0  0  0  0  0  0
   -9.3233  -22.3518    6.4022 C   0  0  0  0  0  0  0  0  0  0  0  0
   -9.2146  -23.7487    6.4937 C   0  0  0  0  0  0  0  0  0  0  0  0
   -9.6531  -24.5814    5.5173 C   0  0  0  0  0  0  0  0  0  0  0  0
  -16.8458  -22.5671    1.3287 C   0  0  0  0  0  0  0  0  0  0  0  0
  -18.0922  -23.1362    1.2059 C   0  0  0  0  0  0  0  0  0  0  0  0
  -10.8718  -22.0574    3.2311 C   0  0  0  0  0  0  0  0  0  0  0  0
  -11.4338  -22.4296    1.9706 C   0  0  0  0  0  0  0  0  0  0  0  0
  -11.5477  -23.7276    1.4042 N   0  0  0  0  0  0  0  0  0  0  0  0
  -11.9009  -21.4876    1.2520 O   0  0  0  0  0  0  0  0  0  0  0  0
  -12.2994  -23.8073    0.1831 C   0  0  0  0  0  0  0  0  0  0  0  0
  -13.7485  -23.8977    0.3250 C   0  0  0  0  0  0  0  0  0  0  0  0
  -14.4974  -22.9684    0.8590 O   0  0  0  0  0  0  0  0  0  0  0  0
  -15.7721  -23.2860    0.8621 C   0  0  0  0  0  0  0  0  0  0  0  0
  -15.8484  -24.5183    0.2875 C   0  0  0  0  0  0  0  0  0  0  0  0
  -14.5863  -24.9720   -0.0838 C   0  0  0  0  0  0  0  0  0  0  0  0
  -17.1209  -25.1042    0.1579 C   0  0  0  0  0  0  0  0  0  0  0  0
  -15.4074  -20.6782    2.0902 O   0  0  0  0  0  0  0  0  0  0  0  0
  -17.6888  -20.6157    2.3427 O   0  0  0  0  0  0  0  0  0  0  0  0
  -10.1685  -20.7156    4.8092 N   0  0  0  0  0  0  0  0  0  0  0  0
   -9.9033  -21.9256    5.2475 N   0  0  0  0  0  0  0  0  0  0  0  0
  -10.2189  -24.1193    4.3963 N   0  0  0  0  0  0  0  0  0  0  0  0
  5  6  2  0
  6  7  1  0
  3  8  1  0
  1  9  2  0
  8  9  1  0
  2 10  1  0
  4 10  2  0
 10 11  1  0
 11 12  1  0
 11 13  2  0
 14 12  1  1
 14 15  1  0
 15 16  1  0
 16 17  1  0
  8 17  2  0
 17 18  1  0
 15 19  2  0
 18 19  1  0
 18 20  2  0
  1 20  1  0
  3 21  1  0
  3 22  2  0
  2 23  2  0
 23 24  1  0
  4 24  1  0
  5 24  1  0
  4 25  1  0
  7 25  2  0
M  END
$$$$
