7K0V_VQP_A_801
     RDKit          3D

 59 61  0  0  0  0  0  0  0  0999 V2000
   -0.9607    5.3029   -8.3919 C   0  0  0  0  0  0  0  0  0  0  0  0
    0.1716    4.6874   -7.8337 C   0  0  0  0  0  0  0  0  0  0  0  0
    0.1127    4.2033   -6.5211 C   0  0  0  0  0  0  0  0  0  0  0  0
   -1.0497    4.3558   -5.7457 C   0  0  0  0  0  0  0  0  0  0  0  0
   -0.8047    1.8387   -3.0423 C   0  0  0  0  0  0  0  0  0  0  0  0
    1.9251    1.7313   -3.7020 C   0  0  0  0  0  0  0  0  0  0  0  0
    5.4663    0.4707   -3.7765 C   0  0  0  0  0  0  0  0  0  0  0  0
    2.6385    1.9437   -6.2997 C   0  0  0  0  0  0  0  0  0  0  0  0
    3.7647    0.9380   -4.1613 C   0  0  2  0  0  0  0  0  0  0  0  0
   -3.4307    5.2030   -5.5000 C   0  0  0  0  0  0  0  0  0  0  0  0
   -0.0067    0.8103   -2.5422 C   0  0  0  0  0  0  0  0  0  0  0  0
    1.3506    0.7515   -2.8678 C   0  0  0  0  0  0  0  0  0  0  0  0
    1.1125    2.7734   -4.2029 C   0  0  0  0  0  0  0  0  0  0  0  0
    3.3007    1.6206   -3.9960 C   0  0  0  0  0  0  0  0  0  0  0  0
    3.4378   -0.3388   -2.6660 C   0  0  0  0  0  0  0  0  0  0  0  0
   -2.1735    5.0053   -6.3025 C   0  0  0  0  0  0  0  0  0  0  0  0
    2.4269    3.6091   -8.2067 C   0  0  0  0  0  0  0  0  0  0  0  0
    3.9395    1.6853   -5.5174 C   0  0  0  0  0  0  0  0  0  0  0  0
    4.5477    1.6430   -3.0333 C   0  0  0  0  0  0  0  0  0  0  0  0
   -2.1170    5.4699   -7.6264 C   0  0  0  0  0  0  0  0  0  0  0  0
    4.3252   -0.4910   -4.3249 C   0  0  0  0  0  0  0  0  0  0  0  0
    2.2749    0.8367   -3.7696 C   0  0  0  0  0  0  0  0  0  0  0  0
   -0.2569    2.8208   -3.8847 C   0  0  0  0  0  0  0  0  0  0  0  0
    1.6339    3.7334   -5.0104 F   0  0  0  0  0  0  0  0  0  0  0  0
   -0.9638    5.7065   -9.6872 F   0  0  0  0  0  0  0  0  0  0  0  0
    4.0329    0.5837   -3.4781 N   0  0  0  0  0  4  0  0  0  0  0  0
    2.1172   -0.2499   -2.3727 N   0  0  0  0  0  0  0  0  0  0  0  0
    1.3766    4.5069   -8.5940 N   0  0  0  0  0  0  0  0  0  0  0  0
    2.6274    3.3106   -6.8183 N   0  0  0  0  0  0  0  0  0  0  0  0
   -1.0680    3.9020   -4.3796 N   0  0  0  0  0  0  0  0  0  0  0  0
    3.8625    2.4760   -4.7361 O   0  0  0  0  0  0  0  0  0  0  0  0
    3.1898    3.1080   -9.0775 O   0  0  0  0  0  0  0  0  0  0  0  0
    0.9892    3.7339   -6.0917 H   0  0  0  0  0  0  0  0  0  0  0  0
   -1.8479    1.8775   -2.7566 H   0  0  0  0  0  0  0  0  0  0  0  0
    5.9051   -0.4589   -3.3534 H   0  0  0  0  0  0  0  0  0  0  0  0
    5.6236    0.4504   -4.8761 H   0  0  0  0  0  0  0  0  0  0  0  0
    6.0084    1.3390   -3.3455 H   0  0  0  0  0  0  0  0  0  0  0  0
    1.7642    1.8181   -5.6273 H   0  0  0  0  0  0  0  0  0  0  0  0
    2.5304    1.2321   -7.1447 H   0  0  0  0  0  0  0  0  0  0  0  0
   -3.2555    5.9697   -4.7165 H   0  0  0  0  0  0  0  0  0  0  0  0
   -4.2742    5.5409   -6.1391 H   0  0  0  0  0  0  0  0  0  0  0  0
   -3.7300    4.2474   -5.0198 H   0  0  0  0  0  0  0  0  0  0  0  0
   -0.4453    0.0614   -1.8941 H   0  0  0  0  0  0  0  0  0  0  0  0
    4.0092   -1.1561   -2.2443 H   0  0  0  0  0  0  0  0  0  0  0  0
    4.4302    2.6672   -5.3319 H   0  0  0  0  0  0  0  0  0  0  0  0
    4.6285    1.0995   -6.1640 H   0  0  0  0  0  0  0  0  0  0  0  0
    4.5247    1.0344   -2.1034 H   0  0  0  0  0  0  0  0  0  0  0  0
    4.1054    2.6322   -2.7909 H   0  0  0  0  0  0  0  0  0  0  0  0
    5.6096    1.7905   -3.3266 H   0  0  0  0  0  0  0  0  0  0  0  0
   -2.9762    5.9545   -8.0740 H   0  0  0  0  0  0  0  0  0  0  0  0
    3.7753   -1.0401   -5.1199 H   0  0  0  0  0  0  0  0  0  0  0  0
    4.2287   -1.0666   -3.3788 H   0  0  0  0  0  0  0  0  0  0  0  0
    5.4009   -0.4609   -4.6023 H   0  0  0  0  0  0  0  0  0  0  0  0
    1.8564    1.8326   -3.5142 H   0  0  0  0  0  0  0  0  0  0  0  0
    2.1492    0.1869   -2.8766 H   0  0  0  0  0  0  0  0  0  0  0  0
    1.6795    0.4038   -4.6021 H   0  0  0  0  0  0  0  0  0  0  0  0
    1.4180    4.9181   -9.5536 H   0  0  0  0  0  0  0  0  0  0  0  0
    2.7438    4.0998   -6.1448 H   0  0  0  0  0  0  0  0  0  0  0  0
   -1.6914    4.3984   -3.7045 H   0  0  0  0  0  0  0  0  0  0  0  0
  1  2  4  0
  2  3  4  0
  3  4  4  0
  5 11  4  0
 11 12  4  0
  6 12  4  0
  6 13  4  0
  6 14  4  0
  4 16  4  0
 10 16  1  0
  9 18  1  1
  8 18  1  0
  9 19  1  0
  1 20  4  0
 16 20  4  0
  9 21  1  0
  9 22  1  0
  5 23  4  0
 13 23  4  0
 13 24  1  0
  1 25  1  0
 14 26  4  0
 15 26  4  0
  7 26  1  0
 12 27  4  0
 15 27  4  0
 17 28  1  0
  2 28  1  0
  8 29  1  0
 17 29  1  0
  4 30  1  0
 23 30  1  0
 14 31  2  0
 17 32  2  0
  3 33  1  0
  5 34  1  0
  7 35  1  0
  7 36  1  0
  7 37  1  0
  8 38  1  0
  8 39  1  0
 10 40  1  0
 10 41  1  0
 10 42  1  0
 11 43  1  0
 15 44  1  0
 18 45  1  0
 18 46  1  0
 19 47  1  0
 19 48  1  0
 19 49  1  0
 20 50  1  0
 21 51  1  0
 21 52  1  0
 21 53  1  0
 22 54  1  0
 22 55  1  0
 22 56  1  0
 28 57  1  0
 29 58  1  0
 30 59  1  0
M  CHG  1  26   1
M  END
