7ZZW_KKW_B_610
     RDKit          3D

 29 33  0  0  0  0  0  0  0  0999 V2000
   23.3884  -23.6523   22.6557 C   0  0  0  0  0  0  0  0  0  0  0  0
   23.3722  -25.0567   22.5767 C   0  0  0  0  0  0  0  0  0  0  0  0
   19.6080  -30.0950   28.4971 C   0  0  0  0  0  0  0  0  0  0  0  0
   22.7362  -25.7698   23.6343 C   0  0  0  0  0  0  0  0  0  0  0  0
   23.8773  -26.0012   21.6236 C   0  0  0  0  0  0  0  0  0  0  0  0
   23.6271  -27.2916   21.9644 C   0  0  0  0  0  0  0  0  0  0  0  0
   18.5637  -29.2651   27.7126 C   0  0  2  0  0  0  0  0  0  0  0  0
   19.3210  -31.9548   30.2461 C   0  0  0  0  0  0  0  0  0  0  0  0
   21.1398  -32.6377   31.6489 C   0  0  0  0  0  0  0  0  0  0  0  0
   20.2699  -33.2349   32.5336 C   0  0  0  0  0  0  0  0  0  0  0  0
   18.7677  -31.2666   29.0128 C   0  0  1  0  0  0  0  0  0  0  0  0
   18.9214  -33.1946   32.2777 C   0  0  0  0  0  0  0  0  0  0  0  0
   18.4537  -32.5612   31.1450 C   0  0  0  0  0  0  0  0  0  0  0  0
   21.0172  -27.7717   27.0631 C   0  0  0  0  0  0  0  0  0  0  0  0
   21.4444  -27.1555   25.7271 C   0  0  0  0  0  0  0  0  0  0  0  0
   20.2584  -25.0979   26.2907 C   0  0  0  0  0  0  0  0  0  0  0  0
   19.9139  -25.6666   27.6595 C   0  0  0  0  0  0  0  0  0  0  0  0
   22.1498  -25.0657   24.7162 C   0  0  0  0  0  0  0  0  0  0  0  0
   22.7912  -23.0467   23.7438 C   0  0  0  0  0  0  0  0  0  0  0  0
   17.3945  -30.6125   29.2439 C   0  0  0  0  0  0  0  0  0  0  0  0
   18.7385  -27.7921   28.0535 C   0  0  0  0  0  0  0  0  0  0  0  0
   20.6863  -31.9991   30.5104 C   0  0  0  0  0  0  0  0  0  0  0  0
   17.2010  -29.7291   28.0747 N   0  0  0  0  0  0  0  0  0  0  0  0
   19.8115  -27.1219   27.5800 N   0  0  0  0  0  0  0  0  0  0  0  0
   21.5031  -25.6891   25.7929 N   0  0  0  0  0  0  0  0  0  0  0  0
   22.1893  -23.7168   24.7447 N   0  0  0  0  0  0  0  0  0  0  0  0
   17.9011  -27.2376   28.7535 O   0  0  0  0  0  0  0  0  0  0  0  0
   22.7721  -27.4758   23.4462 S   0  0  0  0  0  0  0  0  0  0  0  0
   22.8491  -32.6897   31.9724 Cl  0  0  0  0  0  0  0  0  0  0  0  0
  1  2  2  0
  2  4  1  0
  2  5  1  0
  5  6  2  0
  3  7  1  0
  9 10  2  0
 11  8  1  1
  3 11  1  0
 10 12  1  0
 12 13  2  0
  8 13  1  0
 14 15  1  0
 16 17  1  0
  4 18  2  0
  1 19  1  0
 11 20  1  0
  7 21  1  1
  9 22  1  0
  8 22  2  0
 20 23  1  0
  7 23  1  0
 17 24  1  0
 14 24  1  0
 21 24  1  0
 16 25  1  0
 15 25  1  0
 18 25  1  0
 18 26  1  0
 19 26  2  0
 21 27  2  0
  6 28  1  0
  4 28  1  0
  9 29  1  0
M  END
