7SNE_9XR_B_201
     RDKit          3D

 45 49  0  0  0  0  0  0  0  0999 V2000
   24.7964   50.4469   52.8041 O   0  0  0  0  0  0  0  0  0  0  0  0
   23.6563   50.9764   52.8627 C   0  0  0  0  0  0  0  0  0  0  0  0
   23.4306   52.2169   52.1975 N   0  0  0  0  0  0  0  0  0  0  0  0
   22.5700   50.3357   53.6013 C   0  0  0  0  0  0  0  0  0  0  0  0
   21.3360   50.9601   53.6995 C   0  0  0  0  0  0  0  0  0  0  0  0
   22.7914   49.1122   54.1915 C   0  0  0  0  0  0  0  0  0  0  0  0
   21.7420   48.5412   54.8781 C   0  0  0  0  0  0  0  0  0  0  0  0
   20.5203   49.1661   54.9717 C   0  0  0  0  0  0  0  0  0  0  0  0
   20.2701   50.4106   54.3796 C   0  0  0  0  0  0  0  0  0  0  0  0
   17.9280   50.5988   55.3221 C   0  0  1  0  0  0  0  0  0  0  0  0
   17.6978   51.5480   56.3123 O   0  0  0  0  0  0  0  0  0  0  0  0
   16.6185   50.3304   54.6669 C   0  0  2  0  0  0  0  0  0  0  0  0
   16.4909   50.8700   53.4000 O   0  0  0  0  0  0  0  0  0  0  0  0
   15.6246   50.8571   55.6677 C   0  0  2  0  0  0  0  0  0  0  0  0
   14.9902   51.9655   55.0923 O   0  0  0  0  0  0  0  0  0  0  0  0
   16.4482   51.3166   56.8181 C   0  0  1  0  0  0  0  0  0  0  0  0
   16.5604   50.2668   57.9116 C   0  0  0  0  0  0  0  0  0  0  0  0
   16.4477   48.9973   57.3490 O   0  0  0  0  0  0  0  0  0  0  0  0
   16.6429   47.7558   58.4541 P   0  0  1  0  0  5  0  0  0  0  0  0
   18.1819   47.0552   58.1941 O   0  0  0  0  0  0  0  0  0  0  0  0
   16.7059   48.3883   59.8266 O   0  0  0  0  0  0  0  0  0  0  0  0
   15.4402   46.5758   58.3665 O   0  0  0  0  0  0  0  0  0  0  0  0
   14.3952   46.7188   59.6864 P   0  0  2  0  0  5  0  0  0  0  0  0
   13.7445   45.1572   59.9518 O   0  0  0  0  0  0  0  0  0  0  0  0
   13.2513   47.5894   59.2945 O   0  0  0  0  0  0  0  0  0  0  0  0
   15.1733   47.2514   61.0832 O   0  0  0  0  0  0  0  0  0  0  0  0
   14.3141   47.6173   62.0812 C   0  0  0  0  0  0  0  0  0  0  0  0
   14.3064   46.6808   63.2544 C   0  0  2  0  0  0  0  0  0  0  0  0
   15.4766   45.7140   63.2130 C   0  0  1  0  0  0  0  0  0  0  0  0
   16.6753   46.3403   63.5288 O   0  0  0  0  0  0  0  0  0  0  0  0
   15.0285   44.7624   64.2968 C   0  0  1  0  0  0  0  0  0  0  0  0
   15.3218   45.3945   65.5127 O   0  0  0  0  0  0  0  0  0  0  0  0
   13.5419   44.7339   64.0402 C   0  0  1  0  0  0  0  0  0  0  0  0
   13.2086   45.8325   63.2598 O   0  0  0  0  0  0  0  0  0  0  0  0
   13.1510   43.5381   63.3406 N   0  0  0  0  0  0  0  0  0  0  0  0
   12.6165   42.4510   63.9687 C   0  0  0  0  0  0  0  0  0  0  0  0
   12.3446   41.4646   63.0456 C   0  0  0  0  0  0  0  0  0  0  0  0
   12.7173   41.9608   61.8578 N   0  0  0  0  0  0  0  0  0  0  0  0
   13.1978   43.2026   62.0524 C   0  0  0  0  0  0  0  0  0  0  0  0
   12.3271   42.1977   65.2759 N   0  0  0  0  0  0  0  0  0  0  0  0
   11.7888   41.0145   65.6627 C   0  0  0  0  0  0  0  0  0  0  0  0
   11.5185   40.0354   64.7481 N   0  0  0  0  0  0  0  0  0  0  0  0
   11.7956   40.2636   63.4544 C   0  0  0  0  0  0  0  0  0  0  0  0
   11.5309   39.2676   62.4533 N   0  0  0  0  0  0  0  0  0  0  0  0
   18.9988   51.0134   54.4909 N   0  0  0  0  0  0  0  0  0  0  0  0
  1  2  2  0
  2  3  1  0
  2  4  1  0
  4  5  2  0
  4  6  1  0
  6  7  2  0
  7  8  1  0
  8  9  2  0
  5  9  1  0
 10 11  1  0
 10 12  1  0
 12 13  1  6
 12 14  1  0
 14 15  1  6
 16 11  1  6
 14 16  1  0
 16 17  1  0
 17 18  1  1
 19 18  1  0
 19 20  1  6
 19 21  2  0
 19 22  1  0
 23 22  1  0
 23 24  1  1
 23 25  2  0
 23 26  1  0
 27 26  1  6
 28 27  1  0
 28 29  1  0
 29 30  1  1
 29 31  1  0
 31 32  1  1
 31 33  1  0
 28 34  1  6
 33 34  1  0
 33 35  1  6
 35 36  1  0
 36 37  2  0
 37 38  1  0
 35 39  1  0
 38 39  2  0
 36 40  1  0
 40 41  2  0
 41 42  1  0
 37 43  1  0
 42 43  2  0
 43 44  1  0
 10 45  1  6
  9 45  1  0
M  END
$$$$
