7M3H_YPV_B_501
     RDKit          3D

 43 44  0  0  0  0  0  0  0  0999 V2000
    0.9767   -0.7115    2.6675 C   0  0  0  0  0  0  0  0  0  0  0  0
    0.0307   -0.2181    3.5822 C   0  0  0  0  0  0  0  0  0  0  0  0
   -1.2600   -0.7499    3.6181 C   0  0  0  0  0  0  0  0  0  0  0  0
    0.5858    0.3307   -0.0758 C   0  0  0  0  0  0  0  0  0  0  0  0
   -1.2998   -0.6869   -1.3546 C   0  0  0  0  0  0  0  0  0  0  0  0
   -0.2000    0.3051   -1.2431 C   0  0  0  0  0  0  0  0  0  0  0  0
    0.0717    1.2405   -2.2688 C   0  0  0  0  0  0  0  0  0  0  0  0
    1.1102    2.1690   -2.1102 C   0  0  0  0  0  0  0  0  0  0  0  0
    1.8670    2.1933   -0.9387 C   0  0  0  0  0  0  0  0  0  0  0  0
    1.6008    1.2832    0.0882 C   0  0  0  0  0  0  0  0  0  0  0  0
   -1.6195   -1.7961    2.7545 C   0  0  0  0  0  0  0  0  0  0  0  0
   -3.0435   -2.2876    2.7042 C   0  0  0  0  0  0  0  0  0  0  0  0
   -3.6101   -2.2695    1.2727 C   0  0  0  0  0  0  0  0  0  0  0  0
   -3.1505   -1.0697    0.4236 C   0  0  0  0  0  0  0  0  0  0  0  0
   -1.7165   -1.2155   -0.0819 C   0  0  0  0  0  0  0  0  0  0  0  0
   -0.6567   -2.3299    1.8841 C   0  0  0  0  0  0  0  0  0  0  0  0
    0.6333   -1.7940    1.8452 C   0  0  0  0  0  0  0  0  0  0  0  0
    2.2646   -0.0930    2.5208 N   0  0  0  0  0  0  0  0  0  0  0  0
   -1.8800   -1.2188   -0.2055 O   0  0  0  0  0  0  0  0  0  0  0  0
   -0.6862    1.2564   -3.4397 O   0  0  0  0  0  0  0  0  0  0  0  0
    3.9577    1.5309    1.2956 O   0  0  0  0  0  0  0  0  0  0  0  0
    2.0298    2.5333    2.4289 O   0  0  0  0  0  0  0  0  0  0  0  0
   -1.7285   -1.0548   -2.4812 O   0  0  0  0  0  0  0  0  0  0  0  0
    2.4969    1.3651    1.6064 S   0  0  1  0  0  6  0  0  0  0  0  0
    0.2788    0.5954    4.2506 H   0  0  0  0  0  0  0  0  0  0  0  0
   -1.9852   -0.3276    4.3026 H   0  0  0  0  0  0  0  0  0  0  0  0
    0.3965   -0.3750    0.7230 H   0  0  0  0  0  0  0  0  0  0  0  0
    1.3242    2.8845   -2.8940 H   0  0  0  0  0  0  0  0  0  0  0  0
    2.6515    2.9311   -0.8296 H   0  0  0  0  0  0  0  0  0  0  0  0
   -3.0750   -3.3313    3.0849 H   0  0  0  0  0  0  0  0  0  0  0  0
   -3.6945   -1.6897    3.3772 H   0  0  0  0  0  0  0  0  0  0  0  0
   -3.3055   -3.2039    0.7537 H   0  0  0  0  0  0  0  0  0  0  0  0
   -4.7203   -2.2787    1.3251 H   0  0  0  0  0  0  0  0  0  0  0  0
   -3.8345   -0.9153   -0.4375 H   0  0  0  0  0  0  0  0  0  0  0  0
   -3.2058   -0.1556    1.0533 H   0  0  0  0  0  0  0  0  0  0  0  0
   -1.0229   -1.3986    0.7662 H   0  0  0  0  0  0  0  0  0  0  0  0
   -1.6378   -2.0480   -0.8104 H   0  0  0  0  0  0  0  0  0  0  0  0
   -1.4103   -0.2791   -0.5945 H   0  0  0  0  0  0  0  0  0  0  0  0
   -0.9153   -3.1389    1.2122 H   0  0  0  0  0  0  0  0  0  0  0  0
    1.3521   -2.1924    1.1404 H   0  0  0  0  0  0  0  0  0  0  0  0
    3.1195   -0.6346    2.7791 H   0  0  0  0  0  0  0  0  0  0  0  0
   -2.6392   -1.8868   -0.2665 H   0  0  0  0  0  0  0  0  0  0  0  0
   -0.5060    1.9221   -4.1823 H   0  0  0  0  0  0  0  0  0  0  0  0
  1  2  4  0
  2  3  4  0
  4  6  4  0
  5  6  1  0
  6  7  4  0
  7  8  4  0
  8  9  4  0
  4 10  4  0
  9 10  4  0
  3 11  4  0
 11 12  1  0
 12 13  1  0
 13 14  1  0
 14 15  1  0
 11 16  4  0
 16 17  4  0
  1 17  4  0
  1 18  1  0
  5 19  1  0
  7 20  1  0
  5 23  2  0
 21 24  2  0
 22 24  2  0
 24 18  1  6
 10 24  1  0
  2 25  1  0
  3 26  1  0
  4 27  1  0
  8 28  1  0
  9 29  1  0
 12 30  1  0
 12 31  1  0
 13 32  1  0
 13 33  1  0
 14 34  1  0
 14 35  1  0
 15 36  1  0
 15 37  1  0
 15 38  1  0
 16 39  1  0
 17 40  1  0
 18 41  1  0
 19 42  1  0
 20 43  1  0
M  END
