7RNI_60I_B_502
     RDKit          3D

 65 68  0  0  0  0  0  0  0  0999 V2000
  190.5190  124.8145   35.1211 N   0  0  0  0  0  0  0  0  0  0  0  0
  191.2152  125.2125   31.6189 C   0  0  2  0  0  0  0  0  0  0  0  0
  188.4863  126.2123   31.2921 O   0  0  0  0  0  0  0  0  0  0  0  0
  190.6419  125.1751   32.9981 C   0  0  0  0  0  0  0  0  0  0  0  0
  186.1692  124.4456   32.9611 C   0  0  2  0  0  0  0  0  0  0  0  0
  183.3420  126.3229   31.3523 C   0  0  2  0  0  0  0  0  0  0  0  0
  182.7167  125.3180   30.4055 C   0  0  0  0  0  0  0  0  0  0  0  0
  182.3076  123.4400   29.5021 C   0  0  0  0  0  0  0  0  0  0  0  0
  182.3256  122.1118   29.0847 C   0  0  0  0  0  0  0  0  0  0  0  0
  181.2088  121.6307   28.3796 C   0  0  0  0  0  0  0  0  0  0  0  0
  180.1034  122.4751   28.1347 C   0  0  0  0  0  0  0  0  0  0  0  0
  180.1114  123.8086   28.5836 C   0  0  0  0  0  0  0  0  0  0  0  0
  181.2543  124.2679   29.2475 C   0  0  0  0  0  0  0  0  0  0  0  0
  180.5804  126.6264   29.8668 C   0  0  1  0  0  0  0  0  0  0  0  0
  189.3293  125.4426   33.3578 C   0  0  0  0  0  0  0  0  0  0  0  0
  181.2971  128.0084   29.7428 C   0  0  2  0  0  0  0  0  0  0  0  0
  182.4806  128.1250   30.7199 C   0  0  2  0  0  0  0  0  0  0  0  0
  180.2761  129.1158   30.0778 C   0  0  2  0  0  0  0  0  0  0  0  0
  181.8140  128.2410   28.3103 C   0  0  1  0  0  0  0  0  0  0  0  0
  189.2853  125.1883   34.7219 C   0  0  0  0  0  0  0  0  0  0  0  0
  190.9121  124.4009   36.4649 C   0  0  2  0  0  0  0  0  0  0  0  0
  188.0724  125.1756   35.6068 C   0  0  2  0  0  0  0  0  0  0  0  0
  188.2204  125.8198   32.4614 C   0  0  0  0  0  0  0  0  0  0  0  0
  186.1042  126.9659   33.2078 C   0  0  1  0  0  0  0  0  0  0  0  0
  184.6212  126.6656   33.4742 C   0  0  1  0  0  0  0  0  0  0  0  0
  184.8560  124.5129   32.1745 C   0  0  2  0  0  0  0  0  0  0  0  0
  191.3402  124.7887   34.0828 N   0  0  0  0  0  0  0  0  0  0  0  0
  186.8504  125.7405   32.8924 N   0  0  0  0  0  0  0  0  0  0  0  0
  184.0475  125.7130   32.4996 N   0  0  0  0  0  0  0  0  0  0  0  0
  183.2282  124.0683   30.2478 N   0  0  0  0  0  0  0  0  0  0  0  0
  181.4967  125.4732   29.8029 N   0  0  0  0  0  0  0  0  0  0  0  0
  191.1004  126.2349   31.1952 H   0  0  0  0  0  0  0  0  0  0  0  0
  190.6834  124.4856   30.9676 H   0  0  0  0  0  0  0  0  0  0  0  0
  192.2919  124.9403   31.6464 H   0  0  0  0  0  0  0  0  0  0  0  0
  186.8038  123.6280   32.5556 H   0  0  0  0  0  0  0  0  0  0  0  0
  185.9562  124.2040   34.0249 H   0  0  0  0  0  0  0  0  0  0  0  0
  182.5373  126.9927   31.7247 H   0  0  0  0  0  0  0  0  0  0  0  0
  184.0550  126.9790   30.8192 H   0  0  0  0  0  0  0  0  0  0  0  0
  183.1616  121.4649   29.3138 H   0  0  0  0  0  0  0  0  0  0  0  0
  181.1873  120.6023   28.0421 H   0  0  0  0  0  0  0  0  0  0  0  0
  179.2365  122.0904   27.6139 H   0  0  0  0  0  0  0  0  0  0  0  0
  179.2485  124.4385   28.4261 H   0  0  0  0  0  0  0  0  0  0  0  0
  180.0009  126.5873   30.8143 H   0  0  0  0  0  0  0  0  0  0  0  0
  179.8151  126.5321   29.0625 H   0  0  0  0  0  0  0  0  0  0  0  0
  183.0655  127.1843   30.7475 H   0  0  0  0  0  0  0  0  0  0  0  0
  182.1173  128.3191   31.7527 H   0  0  0  0  0  0  0  0  0  0  0  0
  183.1424  128.9680   30.4349 H   0  0  0  0  0  0  0  0  0  0  0  0
  179.3716  128.6840   30.5588 H   0  0  0  0  0  0  0  0  0  0  0  0
  179.9582  129.6535   29.1588 H   0  0  0  0  0  0  0  0  0  0  0  0
  180.7196  129.8605   30.7742 H   0  0  0  0  0  0  0  0  0  0  0  0
  182.9229  128.2738   28.2890 H   0  0  0  0  0  0  0  0  0  0  0  0
  181.4556  127.4403   27.6280 H   0  0  0  0  0  0  0  0  0  0  0  0
  181.4461  129.2143   27.9149 H   0  0  0  0  0  0  0  0  0  0  0  0
  190.7638  123.3059   36.5779 H   0  0  0  0  0  0  0  0  0  0  0  0
  190.2993  124.9361   37.2186 H   0  0  0  0  0  0  0  0  0  0  0  0
  191.9822  124.6399   36.6433 H   0  0  0  0  0  0  0  0  0  0  0  0
  187.1467  125.3611   35.0312 H   0  0  0  0  0  0  0  0  0  0  0  0
  188.1746  125.9547   36.3903 H   0  0  0  0  0  0  0  0  0  0  0  0
  187.9801  124.1828   36.0913 H   0  0  0  0  0  0  0  0  0  0  0  0
  186.1954  127.6874   32.3700 H   0  0  0  0  0  0  0  0  0  0  0  0
  186.5343  127.4512   34.1065 H   0  0  0  0  0  0  0  0  0  0  0  0
  184.5309  126.2171   34.4888 H   0  0  0  0  0  0  0  0  0  0  0  0
  184.0384  127.6105   33.5051 H   0  0  0  0  0  0  0  0  0  0  0  0
  184.2541  123.6090   32.4116 H   0  0  0  0  0  0  0  0  0  0  0  0
  185.0915  124.4588   31.0894 H   0  0  0  0  0  0  0  0  0  0  0  0
  2  4  1  0
  6  7  1  0
  8  9  2  0
  9 10  1  0
 10 11  2  0
 11 12  1  0
  8 13  1  0
 12 13  2  0
  4 15  1  0
 16 14  1  6
 16 17  1  0
 16 18  1  0
 16 19  1  0
  1 20  1  0
 15 20  2  0
  1 21  1  0
 20 22  1  0
  3 23  2  0
 15 23  1  0
 24 25  1  0
  5 26  1  0
  1 27  1  0
  4 27  2  0
 23 28  1  0
 24 28  1  0
  5 28  1  0
  6 29  1  0
 25 29  1  0
 26 29  1  0
  8 30  1  0
  7 30  2  0
  7 31  1  0
 13 31  1  0
 14 31  1  0
  2 32  1  6
  2 33  1  0
  2 34  1  0
  5 35  1  6
  5 36  1  0
  6 37  1  1
  6 38  1  0
  9 39  1  0
 10 40  1  0
 11 41  1  0
 12 42  1  0
 14 43  1  1
 14 44  1  0
 17 45  1  1
 17 46  1  0
 17 47  1  0
 18 48  1  1
 18 49  1  0
 18 50  1  0
 19 51  1  1
 19 52  1  0
 19 53  1  0
 21 54  1  6
 21 55  1  0
 21 56  1  0
 22 57  1  6
 22 58  1  0
 22 59  1  0
 24 60  1  6
 24 61  1  0
 25 62  1  1
 25 63  1  0
 26 64  1  1
 26 65  1  0
M  END
