
     RDKit          3D

 23 24  0  0  0  0  0  0  0  0999 V2000
  -62.2507  -54.3772   34.9546 C   0  0  0  0  0  0  0  0  0  0  0  0
  -61.8410  -58.5399   35.3207 C   0  0  0  0  0  0  0  0  0  0  0  0
  -60.2375  -56.9414   36.0940 C   0  0  0  0  0  0  0  0  0  0  0  0
  -63.9210  -56.4869   40.2016 C   0  0  0  0  0  0  0  0  0  0  0  0
  -62.9557  -55.1038   33.8411 C   0  0  0  0  0  0  0  0  0  0  0  0
  -62.4085  -54.8937   36.3885 C   0  0  2  0  0  0  0  0  0  0  0  0
  -62.7208  -56.4246   36.4735 C   0  0  2  0  0  0  0  0  0  0  0  0
  -63.4847  -54.1013   37.1536 C   0  0  0  0  0  0  0  0  0  0  0  0
  -63.5396  -54.5159   38.6267 C   0  0  0  0  0  0  0  0  0  0  0  0
  -63.1780  -56.8621   37.8541 C   0  0  0  0  0  0  0  0  0  0  0  0
  -61.5869  -57.3070   35.9495 C   0  0  0  0  0  0  0  0  0  0  0  0
  -63.5294  -56.0096   38.8336 C   0  0  0  0  0  0  0  0  0  0  0  0
  -59.4729  -59.0135   35.0874 C   0  0  0  0  0  0  0  0  0  0  0  0
  -60.8068  -59.3844   34.8998 C   0  0  0  0  0  0  0  0  0  0  0  0
  -59.1984  -57.7843   35.6913 C   0  0  0  0  0  0  0  0  0  0  0  0
  -58.3506  -59.9281   34.6678 C   0  0  0  0  0  0  0  0  0  0  0  0
  -61.4950  -53.2965   34.6924 C   0  0  0  0  0  0  0  0  0  0  0  0
  -57.4310  -59.2604   33.6417 C   0  0  0  0  0  0  0  0  0  0  0  0
  -57.2660  -60.1349   32.3968 C   0  0  0  0  0  0  0  0  0  0  0  0
  -57.7680  -59.4665   31.1150 C   0  0  0  0  0  0  0  0  0  0  0  0
  -56.6614  -58.8390   30.2819 C   0  0  0  0  0  0  0  0  0  0  0  0
  -63.1346  -58.9315   35.1027 O   0  0  0  0  0  0  0  0  0  0  0  0
  -59.8352  -55.7451   36.6231 O   0  0  0  0  0  0  0  0  0  0  0  0
  1  5  1  0
  6  1  1  6
  6  7  1  0
  6  8  1  0
  8  9  1  0
  7 10  1  0
  2 11  4  0
  7 11  1  1
  3 11  4  0
  4 12  1  0
  9 12  1  0
 10 12  2  0
  2 14  4  0
 13 14  4  0
 13 15  4  0
  3 15  4  0
 13 16  1  0
  1 17  2  0
 16 18  1  0
 18 19  1  0
 19 20  1  0
 20 21  1  0
  2 22  1  0
  3 23  1  0
M  END
