@<TRIPOS>MOLECULE
1V0P_PVB_A_1287
 55 57 0 0 0
SMALL
GASTEIGER

@<TRIPOS>ATOM
      1 N          25.2760   -1.1690   35.1390 N.ar    1  UNL1       -0.1971
      2 C          22.6470    1.7330   38.7140 C.3     1  UNL1        0.0317
      3 N          23.4030    0.4990   38.3800 N.ar    1  UNL1       -0.3123
      4 C          23.9850    0.0940   37.2170 C.ar    1  UNL1        0.1675
      5 N          23.9440    0.6800   35.8860 N.ar    1  UNL1       -0.1947
      6 C          24.6310    0.0420   34.8920 C.ar    0  ACE0        0.2192
      7 C          25.3300   -1.7820   36.3630 C.ar    1  UNL1        0.1558
      8 C          24.7030   -1.1680   37.4670 C.ar    1  UNL1        0.1479
      9 N          24.5060   -1.4480   38.7840 N.ar    1  UNL1       -0.2306
     10 C          23.7470   -0.4480   39.3040 C.ar    1  UNL1        0.0986
     11 N          25.9890   -2.9740   36.5700 N.pl3   1  UNL1       -0.2975
     12 C          26.8160   -3.5670   35.6610 C.ar    1  UNL1        0.0338
     13 C          28.1070   -3.9710   36.0580 C.ar    1  UNL1       -0.0396
     14 C          28.9820   -4.5320   35.1390 C.ar    1  UNL1       -0.0446
     15 C          28.5780   -4.6840   33.7990 C.ar    1  UNL1        0.0772
     16 C          27.2240   -4.2230   33.3810 C.ar    1  UNL1        0.0567
     17 CL         26.7410   -4.3360   31.9420 Cl      1  UNL1       -0.0826
     18 C          26.3940   -3.6880   34.3530 C.ar    1  UNL1       -0.0214
     19 C          29.5100   -5.2780   32.7970 C.2     1  UNL1        0.3382
     20 O          30.1350   -6.3150   33.0750 O.3     1  UNL1       -0.4771
     21 O          29.6670   -4.7350   31.6930 O.2     1  UNL1       -0.2451
     22 N          24.6340    0.5440   33.6180 N.pl3   1  UNL1       -0.3081
     23 CA         25.3470   -0.2440   32.6130 C.3     1  UNL1        0.0487
     24 CB         26.2920    0.5610   31.6970 C.3     1  UNL1       -0.0261
     25 CG1        26.4770    2.0350   32.1370 C.3     1  UNL1       -0.0609
     26 CG2        26.0990    0.3400   30.2020 C.3     1  UNL1       -0.0609
     27 C          24.5370   -1.3740   31.9510 C.3     1  UNL1        0.0628
     28 O          23.2040   -0.9450   31.8650 O.3     1  UNL1       -0.3932
     29 C          23.4690    2.8820   38.1590 C.3     1  UNL1       -0.0444
     30 C          21.2420    1.8350   38.1350 C.3     1  UNL1       -0.0444
     31 H          22.5070    1.7405   39.7748 H       1  UNL1        0.0523
     32 H          23.4598   -0.4076   40.2944 H       1  UNL1        0.1029
     33 H          25.8540   -3.4290   37.4326 H       1  UNL1        0.1536
     34 H          28.4032   -3.8486   37.0390 H       1  UNL1        0.0636
     35 H          29.9226   -4.8358   35.4357 H       1  UNL1        0.0627
     36 H          25.4452   -3.3751   34.0945 H       1  UNL1        0.0651
     37 H          30.0157   -6.7245   33.9093 H       1  UNL1        0.2954
     38 H          24.1814    1.3884   33.3911 H       1  UNL1        0.1493
     39 HA         26.0423   -0.8105   33.1966 H       1  UNL1        0.0523
     40 HB         27.2534    0.1197   31.8576 H       1  UNL1        0.0314
     41 HG11       25.5552    2.5633   32.0106 H       1  UNL1        0.0233
     42 HG12       27.2359    2.4935   31.5380 H       1  UNL1        0.0233
     43 HG13       26.7677    2.0662   33.1663 H       1  UNL1        0.0233
     44 HG21       25.1547    0.7431   29.9008 H       1  UNL1        0.0233
     45 HG22       26.1230   -0.7086   29.9904 H       1  UNL1        0.0233
     46 HG23       26.8838    0.8303   29.6647 H       1  UNL1        0.0233
     47 H1         24.5970   -2.2622   32.5446 H       1  UNL1        0.0576
     48 H2         24.9246   -1.5947   30.9784 H       1  UNL1        0.0576
     49 H          22.8692   -0.7497   32.7542 H       1  UNL1        0.2095
     50 H          23.5494    2.7825   37.0967 H       1  UNL1        0.0249
     51 H          24.4464    2.8640   38.5939 H       1  UNL1        0.0249
     52 H          22.9906    3.8095   38.3951 H       1  UNL1        0.0249
     53 H          21.2957    1.8337   37.0663 H       1  UNL1        0.0249
     54 H          20.7841    2.7429   38.4680 H       1  UNL1        0.0249
     55 H          20.6592    1.0001   38.4639 H       1  UNL1        0.0249
@<TRIPOS>BOND
     1     2     3    1
     2     3     4   ar
     3     4     5   ar
     4     1     6   ar
     5     5     6   ar
     6     1     7   ar
     7     4     8   ar
     8     7     8   ar
     9     8     9   ar
    10     3    10   ar
    11     9    10   ar
    12     7    11    1
    13    11    12    1
    14    12    13   ar
    15    13    14   ar
    16    14    15   ar
    17    15    16   ar
    18    16    17    1
    19    12    18   ar
    20    16    18   ar
    21    15    19    1
    22    19    20    1
    23    19    21    2
    24     6    22    1
    25    22    23    1
    26    23    24    1
    27    24    25    1
    28    24    26    1
    29    23    27    1
    30    27    28    1
    31     2    29    1
    32     2    30    1
    33     2    31    1
    34    10    32    1
    35    11    33    1
    36    13    34    1
    37    14    35    1
    38    18    36    1
    39    20    37    1
    40    22    38    1
    41    23    39    1
    42    24    40    1
    43    25    41    1
    44    25    42    1
    45    25    43    1
    46    26    44    1
    47    26    45    1
    48    26    46    1
    49    27    47    1
    50    27    48    1
    51    28    49    1
    52    29    50    1
    53    29    51    1
    54    29    52    1
    55    30    53    1
    56    30    54    1
    57    30    55    1
