1V0P_PVB_A_1287
     RDKit          3D

 55 57  0  0  0  0  0  0  0  0999 V2000
   -1.4157   -1.0176   -0.4507 N   0  0  0  0  0  0  0  0  0  0  0  0
    3.5736   -1.8682   -1.4250 C   0  0  0  0  0  0  0  0  0  0  0  0
    2.5188   -0.8596   -1.2732 N   0  0  0  0  0  0  0  0  0  0  0  0
    1.2289   -1.0564   -0.9720 C   0  0  0  0  0  0  0  0  0  0  0  0
    0.5842   -2.2398   -0.8313 N   0  0  0  0  0  0  0  0  0  0  0  0
   -0.7576   -2.2181   -0.5687 C   0  0  0  0  0  0  0  0  0  0  0  0
   -0.7651    0.1773   -0.5732 C   0  0  0  0  0  0  0  0  0  0  0  0
    0.5991    0.1357   -0.8621 C   0  0  0  0  0  0  0  0  0  0  0  0
    1.4596    1.1445   -1.1004 N   0  0  0  0  0  0  0  0  0  0  0  0
    2.6312    0.4944   -1.3381 C   0  0  0  0  0  0  0  0  0  0  0  0
   -1.5005    1.4058   -0.4724 N   0  0  0  0  0  0  0  0  0  0  0  0
   -0.9803    2.6192    0.0983 C   0  0  0  0  0  0  0  0  0  0  0  0
   -0.0392    2.5907    1.1372 C   0  0  0  0  0  0  0  0  0  0  0  0
    0.4434    3.7802    1.6865 C   0  0  0  0  0  0  0  0  0  0  0  0
   -0.0185    5.0291    1.2292 C   0  0  0  0  0  0  0  0  0  0  0  0
   -0.9908    5.0551    0.1962 C   0  0  0  0  0  0  0  0  0  0  0  0
   -1.6331    6.5490   -0.4852 Cl  0  0  0  0  0  0  0  0  0  0  0  0
   -1.4642    3.8536   -0.3493 C   0  0  0  0  0  0  0  0  0  0  0  0
    0.5338    6.2606    1.8546 C   0  0  0  0  0  0  0  0  0  0  0  0
    1.6664    6.1811    2.6626 O   0  0  0  0  0  0  0  0  0  0  0  0
   -0.0124    7.3828    1.6831 O   0  0  0  0  0  0  0  0  0  0  0  0
   -1.4655   -3.4569   -0.4231 N   0  0  0  0  0  0  0  0  0  0  0  0
   -2.8599   -3.5428    0.0301 C   0  0  2  0  0  0  0  0  0  0  0  0
   -2.9382   -3.8892    1.5448 C   0  0  0  0  0  0  0  0  0  0  0  0
   -2.2307   -5.2063    1.9072 C   0  0  0  0  0  0  0  0  0  0  0  0
   -2.3810   -2.7433    2.4024 C   0  0  0  0  0  0  0  0  0  0  0  0
   -3.6300   -4.5537   -0.8395 C   0  0  0  0  0  0  0  0  0  0  0  0
   -3.7851   -4.0540   -2.1407 O   0  0  0  0  0  0  0  0  0  0  0  0
    4.3010   -1.6915   -2.7625 C   0  0  0  0  0  0  0  0  0  0  0  0
    4.5538   -1.7848   -0.2513 C   0  0  0  0  0  0  0  0  0  0  0  0
    3.1172   -2.8834   -1.4197 H   0  0  0  0  0  0  0  0  0  0  0  0
    3.5576    1.0111   -1.5536 H   0  0  0  0  0  0  0  0  0  0  0  0
   -2.4926    1.4018   -0.8026 H   0  0  0  0  0  0  0  0  0  0  0  0
    0.3156    1.6470    1.5317 H   0  0  0  0  0  0  0  0  0  0  0  0
    1.1722    3.7184    2.4853 H   0  0  0  0  0  0  0  0  0  0  0  0
   -2.2039    3.8803   -1.1410 H   0  0  0  0  0  0  0  0  0  0  0  0
    2.0533    7.0092    3.1008 H   0  0  0  0  0  0  0  0  0  0  0  0
   -0.9274   -4.3435   -0.5559 H   0  0  0  0  0  0  0  0  0  0  0  0
   -3.3678   -2.5634   -0.1166 H   0  0  0  0  0  0  0  0  0  0  0  0
   -4.0111   -4.0010    1.8166 H   0  0  0  0  0  0  0  0  0  0  0  0
   -2.3555   -5.4156    2.9917 H   0  0  0  0  0  0  0  0  0  0  0  0
   -2.6713   -6.0595    1.3527 H   0  0  0  0  0  0  0  0  0  0  0  0
   -1.1421   -5.1522    1.6876 H   0  0  0  0  0  0  0  0  0  0  0  0
   -1.2922   -2.6110    2.2264 H   0  0  0  0  0  0  0  0  0  0  0  0
   -2.9045   -1.7914    2.1638 H   0  0  0  0  0  0  0  0  0  0  0  0
   -2.5398   -2.9608    3.4823 H   0  0  0  0  0  0  0  0  0  0  0  0
   -4.6428   -4.7167   -0.4127 H   0  0  0  0  0  0  0  0  0  0  0  0
   -3.1128   -5.5400   -0.8642 H   0  0  0  0  0  0  0  0  0  0  0  0
   -2.9452   -4.2576   -2.6307 H   0  0  0  0  0  0  0  0  0  0  0  0
    3.5668   -1.6890   -3.5974 H   0  0  0  0  0  0  0  0  0  0  0  0
    4.8701   -0.7359   -2.7797 H   0  0  0  0  0  0  0  0  0  0  0  0
    5.0130   -2.5299   -2.9202 H   0  0  0  0  0  0  0  0  0  0  0  0
    5.3250   -2.5798   -0.3386 H   0  0  0  0  0  0  0  0  0  0  0  0
    4.0071   -1.9291    0.7063 H   0  0  0  0  0  0  0  0  0  0  0  0
    5.0587   -0.7952   -0.2321 H   0  0  0  0  0  0  0  0  0  0  0  0
  2  3  1  0
  3  4  1  0
  4  5  2  0
  1  6  2  0
  5  6  1  0
  1  7  1  0
  4  8  1  0
  7  8  2  0
  8  9  1  0
  3 10  1  0
  9 10  2  0
  7 11  1  0
 11 12  1  0
 12 13  2  0
 13 14  1  0
 14 15  2  0
 15 16  1  0
 16 17  1  0
 12 18  1  0
 16 18  2  0
 15 19  1  0
 19 20  1  0
 19 21  2  0
  6 22  1  0
 22 23  1  0
 23 24  1  0
 24 25  1  0
 24 26  1  0
 23 27  1  0
 27 28  1  0
  2 29  1  0
  2 30  1  0
  2 31  1  0
 10 32  1  0
 11 33  1  0
 13 34  1  0
 14 35  1  0
 18 36  1  0
 20 37  1  0
 22 38  1  0
 23 39  1  1
 24 40  1  0
 25 41  1  0
 25 42  1  0
 25 43  1  0
 26 44  1  0
 26 45  1  0
 26 46  1  0
 27 47  1  0
 27 48  1  0
 28 49  1  0
 29 50  1  0
 29 51  1  0
 29 52  1  0
 30 53  1  0
 30 54  1  0
 30 55  1  0
M  END
