7PGX_FMN_AAA_618
     RDKit          3D

 52 54  0  0  0  0  0  0  0  0999 V2000
   -2.3870   -1.3307    3.9085 N   0  0  0  0  0  0  0  0  0  0  0  0
   -2.3949   -0.5481    5.0201 C   0  0  0  0  0  0  0  0  0  0  0  0
   -3.0852   -0.8934    6.0150 O   0  0  0  0  0  0  0  0  0  0  0  0
   -1.6647    0.6035    5.0656 N   0  0  0  0  0  4  0  0  0  0  0  0
   -0.9037    1.0090    4.0117 C   0  0  0  0  0  0  0  0  0  0  0  0
   -0.2392    2.0779    4.0885 O   0  0  0  0  0  0  0  0  0  0  0  0
   -0.8630    0.2351    2.8534 C   0  0  0  0  0  0  0  0  0  0  0  0
   -0.1201    0.5804    1.7819 N   0  0  0  0  0  0  0  0  0  0  0  0
   -0.0851   -0.2012    0.6746 C   0  0  0  0  0  0  0  0  0  0  0  0
    0.7125    0.2001   -0.3995 C   0  0  0  0  0  0  0  0  0  0  0  0
    0.8046   -0.5769   -1.5601 C   0  0  0  0  0  0  0  0  0  0  0  0
    1.6846   -0.1097   -2.6907 C   0  0  0  0  0  0  0  0  0  0  0  0
    0.1063   -1.8008   -1.6298 C   0  0  0  0  0  0  0  0  0  0  0  0
    0.2000   -2.6811   -2.8507 C   0  0  0  0  0  0  0  0  0  0  0  0
   -0.7104   -2.1985   -0.5575 C   0  0  0  0  0  0  0  0  0  0  0  0
   -0.8374   -1.4091    0.6120 C   0  0  0  0  0  0  0  0  0  0  0  0
   -1.6450   -1.7792    1.6801 N   0  0  0  0  0  4  0  0  0  0  0  0
   -1.6566   -0.9986    2.8104 C   0  0  0  0  0  0  0  0  0  0  0  0
   -2.4885   -2.9984    1.6595 C   0  0  0  0  0  0  0  0  0  0  0  0
   -1.6323   -4.2649    1.4394 C   0  0  2  0  0  0  0  0  0  0  0  0
   -0.2671   -3.9419    1.3686 O   0  0  0  0  0  0  0  0  0  0  0  0
   -2.0562   -5.0756    0.1845 C   0  0  2  0  0  0  0  0  0  0  0  0
   -2.1545   -6.4378    0.5190 O   0  0  0  0  0  0  0  0  0  0  0  0
   -1.1448   -4.9111   -1.0654 C   0  0  2  0  0  0  0  0  0  0  0  0
   -0.2388   -5.9857   -1.1383 O   0  0  0  0  0  0  0  0  0  0  0  0
   -0.3914   -3.5682   -1.1195 C   0  0  0  0  0  0  0  0  0  0  0  0
   -0.7092   -2.8116    0.0256 O   0  0  0  0  0  0  0  0  0  0  0  0
   -1.5287   -3.8214    1.1296 P   0  0  2  0  0  5  0  0  0  0  0  0
   -1.7233   -5.1948    0.5261 O   0  0  0  0  0  0  0  0  0  0  0  0
   -3.0422   -3.1468    1.4714 O   0  0  0  0  0  0  0  0  0  0  0  0
   -0.6474   -3.9541    2.5693 O   0  0  0  0  0  0  0  0  0  0  0  0
   -1.6890    1.1887    5.9321 H   0  0  0  0  0  0  0  0  0  0  0  0
    1.2685    1.1278   -0.3242 H   0  0  0  0  0  0  0  0  0  0  0  0
    2.0301    0.9347   -2.5360 H   0  0  0  0  0  0  0  0  0  0  0  0
    2.5774   -0.7652   -2.7641 H   0  0  0  0  0  0  0  0  0  0  0  0
    1.1254   -0.1397   -3.6491 H   0  0  0  0  0  0  0  0  0  0  0  0
   -0.3085   -2.1885   -3.7057 H   0  0  0  0  0  0  0  0  0  0  0  0
   -0.2778   -3.6698   -2.6844 H   0  0  0  0  0  0  0  0  0  0  0  0
    1.2636   -2.8643   -3.1104 H   0  0  0  0  0  0  0  0  0  0  0  0
   -1.2151   -3.1445   -0.6543 H   0  0  0  0  0  0  0  0  0  0  0  0
   -3.0371   -3.0991    2.6219 H   0  0  0  0  0  0  0  0  0  0  0  0
   -3.3039   -2.9124    0.9176 H   0  0  0  0  0  0  0  0  0  0  0  0
   -1.8019   -4.9395    2.3127 H   0  0  0  0  0  0  0  0  0  0  0  0
    0.0681   -3.8775    2.3010 H   0  0  0  0  0  0  0  0  0  0  0  0
   -3.0660   -4.7088   -0.1188 H   0  0  0  0  0  0  0  0  0  0  0  0
   -2.9762   -6.5443    1.0664 H   0  0  0  0  0  0  0  0  0  0  0  0
   -1.7779   -4.9772   -1.9748 H   0  0  0  0  0  0  0  0  0  0  0  0
    0.4078   -5.8904   -0.3908 H   0  0  0  0  0  0  0  0  0  0  0  0
    0.6998   -3.7768   -1.1445 H   0  0  0  0  0  0  0  0  0  0  0  0
   -0.6916   -3.0218   -2.0419 H   0  0  0  0  0  0  0  0  0  0  0  0
   -3.4702   -3.0257    0.5865 H   0  0  0  0  0  0  0  0  0  0  0  0
   -1.2173   -4.5032    3.1648 H   0  0  0  0  0  0  0  0  0  0  0  0
  1  2  4  0
  2  3  2  0
  2  4  4  0
  4  5  4  0
  5  6  2  0
  5  7  4  0
  7  8  4  0
  8  9  4  0
  9 10  4  0
 10 11  4  0
 11 12  1  0
 11 13  4  0
 13 14  1  0
 13 15  4  0
  9 16  4  0
 15 16  4  0
 16 17  4  0
  1 18  4  0
  7 18  1  0
 17 18  4  0
 17 19  1  0
 19 20  1  0
 20 21  1  0
 20 22  1  0
 22 23  1  0
 22 24  1  0
 24 25  1  0
 24 26  1  0
 26 27  1  0
 28 27  1  6
 28 29  2  0
 28 30  1  0
 28 31  1  0
  4 32  1  0
 10 33  1  0
 12 34  1  0
 12 35  1  0
 12 36  1  0
 14 37  1  0
 14 38  1  0
 14 39  1  0
 15 40  1  0
 19 41  1  0
 19 42  1  0
 20 43  1  1
 21 44  1  0
 22 45  1  6
 23 46  1  0
 24 47  1  6
 25 48  1  0
 26 49  1  0
 26 50  1  0
 30 51  1  0
 31 52  1  0
M  CHG  2   4   1  17   1
M  END
