
     RDKit          3D

 22 23  0  0  0  0  0  0  0  0999 V2000
   15.3487  -15.5788    9.2319 P   0  0  0  0  0  5  0  0  0  0  0  0
   15.8193  -16.9929    9.2393 O   0  0  0  0  0  0  0  0  0  0  0  0
   14.1510  -15.2224   10.2172 O   0  0  0  0  0  0  0  0  0  0  0  0
   14.7230  -15.1520    7.8276 O   0  0  0  0  0  0  0  0  0  0  0  0
   16.4596  -14.4681    9.5069 O   0  0  0  0  0  0  0  0  0  0  0  0
   16.6404  -14.0141   10.8399 C   0  0  0  0  0  0  0  0  0  0  0  0
   16.6035  -12.4880   10.9340 C   0  0  1  0  0  0  0  0  0  0  0  0
   17.9122  -11.9716   10.6236 O   0  0  0  0  0  0  0  0  0  0  0  0
   15.6427  -11.8217    9.9495 C   0  0  1  0  0  0  0  0  0  0  0  0
   14.3046  -11.7141   10.4405 O   0  0  0  0  0  0  0  0  0  0  0  0
   16.2464  -10.4319    9.7911 C   0  0  1  0  0  0  0  0  0  0  0  0
   15.6561   -9.5415   10.7625 O   0  0  0  0  0  0  0  0  0  0  0  0
   17.7388  -10.6399   10.1045 C   0  0  2  0  0  0  0  0  0  0  0  0
   18.6746  -10.4338    9.0012 N   0  0  0  0  0  0  0  0  0  0  0  0
   19.5255   -9.3298    9.0142 C   0  0  0  0  0  0  0  0  0  0  0  0
   19.5333   -8.5372    9.9534 O   0  0  0  0  0  0  0  0  0  0  0  0
   20.3844   -9.1525    7.9579 N   0  0  0  0  0  0  0  0  0  0  0  0
   20.3739   -9.9813    6.9603 C   0  0  0  0  0  0  0  0  0  0  0  0
   21.2719   -9.7149    5.9610 N   0  0  0  0  0  0  0  0  0  0  0  0
   19.4666  -11.1539    6.8838 C   0  0  0  0  0  0  0  0  0  0  0  0
   18.6546  -11.3051    7.9330 C   0  0  0  0  0  0  0  0  0  0  0  0
   19.4793  -12.0461    5.6894 C   0  0  0  0  0  0  0  0  0  0  0  0
  1  2  2  0
  1  3  1  0
  1  4  1  0
  1  5  1  0
  5  6  1  0
  7  6  1  6
  7  8  1  0
  7  9  1  0
  9 10  1  1
  9 11  1  0
 11 12  1  1
  8 13  1  0
 11 13  1  0
 13 14  1  6
 14 15  4  0
 15 16  2  0
 15 17  4  0
 17 18  4  0
 18 19  1  0
 18 20  4  0
 14 21  4  0
 20 21  4  0
 20 22  1  0
M  END
