7T0D_FPP_B_646
     RDKit          3D

 24 23  0  0  0  0  0  0  0  0999 V2000
   37.7414   -6.6977   -5.3344 C   0  0  0  0  0  0  0  0  0  0  0  0
   38.2091   -5.4513   -5.7317 O   0  0  0  0  0  0  0  0  0  0  0  0
   38.4740   -7.2724   -4.1800 C   0  0  0  0  0  0  0  0  0  0  0  0
   37.9424   -8.0409   -3.2521 C   0  0  0  0  0  0  0  0  0  0  0  0
   37.6404   -7.5425   -1.8847 C   0  0  0  0  0  0  0  0  0  0  0  0
   37.6213   -9.4634   -3.5489 C   0  0  0  0  0  0  0  0  0  0  0  0
   36.9362  -10.1602   -2.3976 C   0  0  0  0  0  0  0  0  0  0  0  0
   36.6315  -11.5342   -2.8050 C   0  0  0  0  0  0  0  0  0  0  0  0
   35.9433  -12.4306   -2.0904 C   0  0  0  0  0  0  0  0  0  0  0  0
   34.4640  -12.2975   -2.1106 C   0  0  0  0  0  0  0  0  0  0  0  0
   36.6829  -13.4784   -1.3843 C   0  0  0  0  0  0  0  0  0  0  0  0
   37.4755  -12.9937   -0.2136 C   0  0  0  0  0  0  0  0  0  0  0  0
   38.1468  -14.0467    0.5607 C   0  0  0  0  0  0  0  0  0  0  0  0
   39.0157  -13.6645    1.5022 C   0  0  0  0  0  0  0  0  0  0  0  0
   40.2354  -12.9059    1.1335 C   0  0  0  0  0  0  0  0  0  0  0  0
   38.7894  -13.9869    2.9567 C   0  0  0  0  0  0  0  0  0  0  0  0
   37.3619   -5.0344   -7.1239 P   0  0  2  0  0  0  0  0  0  0  0  0
   35.8881   -5.0429   -6.7847 O   0  0  0  0  0  0  0  0  0  0  0  0
   37.7142   -6.2040   -8.3090 O   0  0  0  0  0  0  0  0  0  0  0  0
   37.7828   -3.5389   -7.7320 O   0  0  0  0  0  0  0  0  0  0  0  0
   39.4520   -3.5119   -7.9968 P   0  0  2  0  0  0  0  0  0  0  0  0
   40.1383   -4.7741   -7.5219 O   0  0  0  0  0  0  0  0  0  0  0  0
   40.1575   -2.2399   -7.1333 O   0  0  0  0  0  0  0  0  0  0  0  0
   39.7537   -3.3674   -9.6496 O   0  0  0  0  0  0  0  0  0  0  0  0
  1  2  1  0
  1  3  1  0
  3  4  2  0
  4  5  1  0
  4  6  1  0
  6  7  1  0
  7  8  1  0
  8  9  2  0
  9 10  1  0
  9 11  1  0
 11 12  1  0
 12 13  1  0
 13 14  2  0
 14 15  1  0
 14 16  1  0
  2 17  1  0
 17 18  2  0
 17 19  1  6
 17 20  1  0
 20 21  1  0
 21 22  2  0
 21 23  1  1
 21 24  1  0
M  END
$$$$
