8EXL_799_A_1101
     RDKit          3D

 62 66  0  0  0  0  0  0  0  0999 V2000
   -6.0087    4.7936   -1.7951 C   0  0  0  0  0  0  0  0  0  0  0  0
   -4.9673    4.8394   -0.6849 C   0  0  2  0  0  0  0  0  0  0  0  0
   -5.4565    5.7044    0.4936 C   0  0  0  0  0  0  0  0  0  0  0  0
   -3.6819    5.4618   -1.2703 C   0  0  0  0  0  0  0  0  0  0  0  0
   -3.5382    2.8023   -0.2374 C   0  0  0  0  0  0  0  0  0  0  0  0
   -2.6569    0.5579    0.6681 C   0  0  0  0  0  0  0  0  0  0  0  0
   -1.2357   -3.1673    3.6044 C   0  0  0  0  0  0  0  0  0  0  0  0
    0.2605   -2.9444    3.6902 C   0  0  0  0  0  0  0  0  0  0  0  0
    1.8883   -3.8013    2.0163 C   0  0  0  0  0  0  0  0  0  0  0  0
   -0.6898   -1.4520    1.0865 C   0  0  0  0  0  0  0  0  0  0  0  0
   -0.6963   -0.6582   -0.0796 C   0  0  0  0  0  0  0  0  0  0  0  0
    3.8221   -6.2673    1.4898 C   0  0  1  0  0  0  0  0  0  0  0  0
    5.1589   -6.2381    2.2365 C   0  0  0  0  0  0  0  0  0  0  0  0
    2.6216   -5.9379    2.3860 C   0  0  0  0  0  0  0  0  0  0  0  0
   -7.1351    3.9182   -1.6919 N   0  0  0  0  0  0  0  0  0  0  0  0
   -5.8760    5.4983   -2.8332 O   0  0  0  0  0  0  0  0  0  0  0  0
   -4.7090    3.4743   -0.1836 N   0  0  0  0  0  4  0  0  0  0  0  0
   -3.6802    1.6123    0.4531 C   0  0  0  0  0  0  0  0  0  0  0  0
   -4.9810    1.6374    0.9282 C   0  0  0  0  0  0  0  0  0  0  0  0
   -5.5749    2.7827    0.5445 N   0  0  0  0  0  0  0  0  0  0  0  0
   -2.6701   -0.2277    1.8297 C   0  0  0  0  0  0  0  0  0  0  0  0
   -1.7208   -1.2360    2.0503 C   0  0  0  0  0  0  0  0  0  0  0  0
   -1.8871   -1.9615    3.2406 O   0  0  0  0  0  0  0  0  0  0  0  0
    0.8323   -3.0431    2.3574 N   0  0  0  0  0  4  0  0  0  0  0  0
    2.1128   -3.6371    0.6687 C   0  0  0  0  0  0  0  0  0  0  0  0
    1.1894   -2.8004    0.1628 N   0  0  0  0  0  0  0  0  0  0  0  0
    0.4221   -2.4415    1.2177 C   0  0  0  0  0  0  0  0  0  0  0  0
   -1.6613    0.3253   -0.2868 C   0  0  0  0  0  0  0  0  0  0  0  0
    3.1364   -4.3581   -0.1128 C   0  0  0  0  0  0  0  0  0  0  0  0
    3.4582   -3.9711   -1.3646 N   0  0  0  0  0  0  0  0  0  0  0  0
    4.4020   -4.8657   -1.7140 C   0  0  0  0  0  0  0  0  0  0  0  0
    5.1338   -4.8290   -3.0123 C   0  0  0  0  0  0  0  0  0  0  0  0
    4.6614   -5.7523   -0.7381 N   0  0  0  0  0  0  0  0  0  0  0  0
    3.8598   -5.4459    0.2681 N   0  0  0  0  0  4  0  0  0  0  0  0
   -5.6400    6.7516    0.1688 H   0  0  0  0  0  0  0  0  0  0  0  0
   -6.3985    5.2885    0.9116 H   0  0  0  0  0  0  0  0  0  0  0  0
   -4.6967    5.7203    1.3042 H   0  0  0  0  0  0  0  0  0  0  0  0
   -3.2269    4.7819   -2.0223 H   0  0  0  0  0  0  0  0  0  0  0  0
   -2.9311    5.6583   -0.4763 H   0  0  0  0  0  0  0  0  0  0  0  0
   -3.9080    6.4325   -1.7640 H   0  0  0  0  0  0  0  0  0  0  0  0
   -2.6446    3.1566   -0.7309 H   0  0  0  0  0  0  0  0  0  0  0  0
   -1.6130   -3.4761    4.6021 H   0  0  0  0  0  0  0  0  0  0  0  0
   -1.4853   -3.9733    2.8796 H   0  0  0  0  0  0  0  0  0  0  0  0
    0.4861   -1.9468    4.1253 H   0  0  0  0  0  0  0  0  0  0  0  0
    0.7044   -3.7207    4.3521 H   0  0  0  0  0  0  0  0  0  0  0  0
    2.4464   -4.4336    2.6956 H   0  0  0  0  0  0  0  0  0  0  0  0
    0.0659   -0.7808   -0.8393 H   0  0  0  0  0  0  0  0  0  0  0  0
    3.6751   -7.3256    1.1745 H   0  0  0  0  0  0  0  0  0  0  0  0
    5.3907   -5.2396    2.6455 H   0  0  0  0  0  0  0  0  0  0  0  0
    5.1358   -6.9621    3.0788 H   0  0  0  0  0  0  0  0  0  0  0  0
    5.9786   -6.5324    1.5469 H   0  0  0  0  0  0  0  0  0  0  0  0
    2.4578   -6.7673    3.1069 H   0  0  0  0  0  0  0  0  0  0  0  0
    1.7043   -5.8295    1.7682 H   0  0  0  0  0  0  0  0  0  0  0  0
    2.7730   -5.0149    2.9743 H   0  0  0  0  0  0  0  0  0  0  0  0
   -7.2641    3.3035   -0.8572 H   0  0  0  0  0  0  0  0  0  0  0  0
   -7.8426    3.8784   -2.4592 H   0  0  0  0  0  0  0  0  0  0  0  0
   -5.4627    0.8891    1.5420 H   0  0  0  0  0  0  0  0  0  0  0  0
   -3.4423   -0.0828    2.5738 H   0  0  0  0  0  0  0  0  0  0  0  0
   -1.6088    0.9170   -1.1911 H   0  0  0  0  0  0  0  0  0  0  0  0
    5.4565   -5.8528   -3.2954 H   0  0  0  0  0  0  0  0  0  0  0  0
    6.0268   -4.1779   -2.9146 H   0  0  0  0  0  0  0  0  0  0  0  0
    4.4728   -4.4273   -3.8081 H   0  0  0  0  0  0  0  0  0  0  0  0
  2  1  1  6
  2  3  1  0
  2  4  1  0
  7  8  1  0
 10 11  4  0
 12 13  1  0
 12 14  1  0
  1 15  1  0
  1 16  2  0
  5 17  4  0
  2 17  1  0
  6 18  1  0
  5 18  4  0
 18 19  4  0
 19 20  4  0
 17 20  4  0
  6 21  4  0
 10 22  4  0
 21 22  4  0
 22 23  1  0
  7 23  1  0
  9 24  4  0
  8 24  1  0
  9 25  4  0
 25 26  4  0
 26 27  4  0
 24 27  4  0
 10 27  1  0
 11 28  4  0
  6 28  4  0
 25 29  1  0
 29 30  4  0
 30 31  4  0
 31 32  1  0
 31 33  4  0
 33 34  4  0
 12 34  1  0
 29 34  4  0
  3 35  1  0
  3 36  1  0
  3 37  1  0
  4 38  1  0
  4 39  1  0
  4 40  1  0
  5 41  1  0
  7 42  1  0
  7 43  1  0
  8 44  1  0
  8 45  1  0
  9 46  1  0
 11 47  1  0
 12 48  1  6
 13 49  1  0
 13 50  1  0
 13 51  1  0
 14 52  1  0
 14 53  1  0
 14 54  1  0
 15 55  1  0
 15 56  1  0
 19 57  1  0
 21 58  1  0
 28 59  1  0
 32 60  1  0
 32 61  1  0
 32 62  1  0
M  CHG  3  17   1  24   1  34   1
M  END
