8DHG_T78_A_403
     RDKit          3D

 35 37  0  0  0  0  0  0  0  0999 V2000
   33.8310  -22.8266   23.8134 C   0  0  0  0  0  0  0  0  0  0  0  0
   32.8148  -21.7515   24.0528 C   0  0  0  0  0  0  0  0  0  0  0  0
   30.3858  -22.0111   23.5645 C   0  0  0  0  0  0  0  0  0  0  0  0
   31.6299  -21.7616   21.8171 C   0  0  0  0  0  0  0  0  0  0  0  0
   28.1662  -22.2184   22.6054 C   0  0  0  0  0  0  0  0  0  0  0  0
   25.2531  -22.1218   20.5249 O   0  0  0  0  0  0  0  0  0  0  0  0
   25.9056  -21.8324   19.3121 C   0  0  1  0  0  0  0  0  0  0  0  0
   26.4138  -23.1426   18.7225 C   0  0  0  0  0  0  0  0  0  0  0  0
   24.9610  -21.1507   18.3444 C   0  0  1  0  0  0  0  0  0  0  0  0
   26.2337  -22.6914   23.9575 C   0  0  0  0  0  0  0  0  0  0  0  0
   27.5832  -22.5193   23.8179 C   0  0  0  0  0  0  0  0  0  0  0  0
   21.2620  -22.9309   25.0319 C   0  0  0  0  0  0  0  0  0  0  0  0
   22.0598  -22.0313   25.9313 C   0  0  0  0  0  0  0  0  0  0  0  0
   19.8793  -23.0111   25.1282 C   0  0  0  0  0  0  0  0  0  0  0  0
   19.1669  -23.8465   24.2891 C   0  0  0  0  0  0  0  0  0  0  0  0
   21.1875  -24.5160   23.2675 C   0  0  0  0  0  0  0  0  0  0  0  0
   31.6634  -21.8361   23.1610 N   0  0  0  0  0  0  0  0  0  0  0  0
   30.0388  -22.1227   24.7700 O   0  0  0  0  0  0  0  0  0  0  0  0
   29.5758  -22.0445   22.4892 N   0  0  0  0  0  0  0  0  0  0  0  0
   30.3291  -21.8930   21.4241 N   0  0  0  0  0  0  0  0  0  0  0  0
   32.8281  -21.5694   20.9579 C   0  0  0  0  0  0  0  0  0  0  0  0
   32.4770  -21.5559   19.6193 O   0  0  0  0  0  0  0  0  0  0  0  0
   27.3421  -22.0993   21.5497 N   0  0  0  0  0  0  0  0  0  0  0  0
   26.0047  -22.2660   21.6687 C   0  0  0  0  0  0  0  0  0  0  0  0
   25.6546  -20.8866   17.1843 F   0  0  0  0  0  0  0  0  0  0  0  0
   23.9139  -21.9998   18.0574 F   0  0  0  0  0  0  0  0  0  0  0  0
   24.5541  -19.9733   18.9398 F   0  0  0  0  0  0  0  0  0  0  0  0
   25.3828  -22.5657   22.8541 C   0  0  0  0  0  0  0  0  0  0  0  0
   28.3732  -22.6492   24.9098 F   0  0  0  0  0  0  0  0  0  0  0  0
   23.9730  -22.7562   23.0546 C   0  0  0  0  0  0  0  0  0  0  0  0
   23.1714  -22.0429   22.3531 O   0  0  0  0  0  0  0  0  0  0  0  0
   23.3562  -23.6491   23.9459 N   0  0  0  0  0  0  0  0  0  0  0  0
   21.9342  -23.6904   24.0911 C   0  0  0  0  0  0  0  0  0  0  0  0
   19.8351  -24.5920   23.3645 N   0  0  0  0  0  0  0  0  0  0  0  0
   21.9423  -25.5259   22.0354 Cl  0  0  0  0  0  0  0  0  0  0  0  0
  1  2  1  0
  6  7  1  0
  7  8  1  6
  7  9  1  0
 10 11  2  0
  5 11  1  0
 12 13  1  0
 12 14  2  0
 14 15  1  0
  3 17  1  0
  2 17  1  0
  4 17  1  0
  3 18  2  0
  3 19  1  0
  5 19  1  0
 19 20  1  0
  4 20  2  0
  4 21  1  0
 21 22  1  0
  5 23  2  0
 23 24  1  0
  6 24  1  0
  9 25  1  6
  9 26  1  0
  9 27  1  0
 10 28  1  0
 24 28  2  0
 11 29  1  0
 28 30  1  0
 30 31  2  0
 30 32  1  0
 12 33  1  0
 32 33  1  0
 16 33  2  0
 15 34  2  0
 16 34  1  0
 16 35  1  0
M  END
$$$$
