7WDT_NGS_A_901
     RDKit          3D

 19 19  0  0  0  0  0  0  0  0999 V2000
    0.6690   -1.6815   21.9635 C   0  0  2  0  0  0  0  0  0  0  0  0
    1.3383   -2.9054   21.4176 C   0  0  1  0  0  0  0  0  0  0  0  0
    0.6394   -4.1983   21.7672 C   0  0  2  0  0  0  0  0  0  0  0  0
   -0.8371   -4.1301   21.5822 C   0  0  1  0  0  0  0  0  0  0  0  0
   -1.3611   -2.7131   21.5389 C   0  0  1  0  0  0  0  0  0  0  0  0
   -2.7803   -2.7468   22.0791 C   0  0  0  0  0  0  0  0  0  0  0  0
    1.3456   -1.3716   23.1660 O   0  0  0  0  0  0  0  0  0  0  0  0
    0.9294   -4.4986   23.1173 O   0  0  0  0  0  0  0  0  0  0  0  0
   -0.6508   -1.8360   22.3085 O   0  0  0  0  0  0  0  0  0  0  0  0
   -3.0581   -1.5789   22.7905 O   0  0  0  0  0  0  0  0  0  0  0  0
    1.4775   -2.8328   19.9756 N   0  0  0  0  0  0  0  0  0  0  0  0
    2.7188   -3.2393   19.3711 C   0  0  0  0  0  0  0  0  0  0  0  0
    2.9922   -4.4433   19.2266 O   0  0  0  0  0  0  0  0  0  0  0  0
    3.6977   -2.2258   18.9078 C   0  0  0  0  0  0  0  0  0  0  0  0
   -4.1909   -1.9318   23.9753 S   0  0  2  0  0  0  0  0  0  0  0  0
   -3.7381   -3.0952   24.8222 O   0  0  0  0  0  0  0  0  0  0  0  0
   -5.6413   -2.3712   23.2533 O   0  0  0  0  0  0  0  0  0  0  0  0
   -4.4370   -0.7858   24.8870 O   0  0  0  0  0  0  0  0  0  0  0  0
   -1.1919   -4.7876   20.4059 O   0  0  0  0  0  0  0  0  0  0  0  0
  1  2  1  0
  2  3  1  0
  3  4  1  0
  4  5  1  0
  5  6  1  1
  1  7  1  1
  3  8  1  1
  1  9  1  0
  5  9  1  0
  6 10  1  0
  2 11  1  6
 11 12  1  0
 12 13  2  0
 12 14  1  0
 10 15  1  0
 15 16  2  0
 15 17  1  6
 15 18  2  0
  4 19  1  6
M  END
$$$$
