7QE4_NGA_BBB_404
     RDKit          3D

 30 30  0  0  0  0  0  0  0  0999 V2000
   28.4278   19.1583  108.3937 C   0  0  2  0  0  0  0  0  0  0  0  0
   28.0794   19.8648  109.7268 C   0  0  1  0  0  0  0  0  0  0  0  0
   26.5447   19.9592  109.9316 C   0  0  2  0  0  0  0  0  0  0  0  0
   25.8362   18.7796  109.2400 C   0  0  2  0  0  0  0  0  0  0  0  0
   26.2362   18.6986  107.7241 C   0  0  1  0  0  0  0  0  0  0  0  0
   25.1356   19.2073  106.7792 C   0  0  2  0  0  0  0  0  0  0  0  0
   28.8189   19.7284  112.1574 C   0  0  0  0  0  0  0  0  0  0  0  0
   29.0333   18.8474  113.3448 C   0  0  2  0  0  0  0  0  0  0  0  0
   28.6935   19.1491  110.8510 N   0  0  0  0  0  0  0  0  0  0  0  0
   29.6566   19.6423  107.9238 O   0  0  0  0  0  0  0  0  0  0  0  0
   26.0595   21.1663  109.3988 O   0  0  0  0  0  0  0  0  0  0  0  0
   24.4443   18.8784  109.4132 O   0  0  0  0  0  0  0  0  0  0  0  0
   27.4228   19.4295  107.4348 O   0  0  0  0  0  0  0  0  0  0  0  0
   25.6483   20.1859  105.9167 O   0  0  0  0  0  0  0  0  0  0  0  0
   28.7150   20.9745  112.3188 O   0  0  0  0  0  0  0  0  0  0  0  0
   28.5252   18.0554  108.5517 H   0  0  0  0  0  0  0  0  0  0  0  0
   28.4914   20.8987  109.6839 H   0  0  0  0  0  0  0  0  0  0  0  0
   26.3065   19.9204  111.0214 H   0  0  0  0  0  0  0  0  0  0  0  0
   26.1902   17.8396  109.7274 H   0  0  0  0  0  0  0  0  0  0  0  0
   26.4115   17.6292  107.4626 H   0  0  0  0  0  0  0  0  0  0  0  0
   24.3153   19.6545  107.3847 H   0  0  0  0  0  0  0  0  0  0  0  0
   24.7138   18.3594  106.1939 H   0  0  0  0  0  0  0  0  0  0  0  0
   29.1173   19.4672  114.2618 H   0  0  0  0  0  0  0  0  0  0  0  0
   29.9693   18.2666  113.2090 H   0  0  0  0  0  0  0  0  0  0  0  0
   28.1829   18.1433  113.4664 H   0  0  0  0  0  0  0  0  0  0  0  0
   28.8941   18.1280  110.7488 H   0  0  0  0  0  0  0  0  0  0  0  0
   29.9348   19.0357  107.1887 H   0  0  0  0  0  0  0  0  0  0  0  0
   26.7405   21.8617  109.5957 H   0  0  0  0  0  0  0  0  0  0  0  0
   24.2797   18.9693  110.3882 H   0  0  0  0  0  0  0  0  0  0  0  0
   25.1089   21.0035  106.0765 H   0  0  0  0  0  0  0  0  0  0  0  0
  1  2  1  0
  2  3  1  0
  3  4  1  0
  4  5  1  0
  5  6  1  0
  7  8  1  0
  2  9  1  0
  7  9  1  0
  1 10  1  0
  3 11  1  0
  4 12  1  0
  1 13  1  0
  5 13  1  0
  6 14  1  0
  7 15  2  0
  1 16  1  1
  2 17  1  6
  3 18  1  1
  4 19  1  1
  5 20  1  6
  6 21  1  1
  6 22  1  0
  8 23  1  1
  8 24  1  0
  8 25  1  0
  9 26  1  0
 10 27  1  0
 11 28  1  0
 12 29  1  0
 14 30  1  0
M  END
