1Y6B_AAX_A_201
     RDKit          3D

 58 62  0  0  0  0  0  0  0  0999 V2000
   -1.1979   25.7847   21.9199 O   0  0  0  0  0  0  0  0  0  0  0  0
    0.0461   26.6287   21.8894 S   0  0  2  0  0  6  0  0  0  0  0  0
    0.9958   26.1153   22.9348 O   0  0  0  0  0  0  0  0  0  0  0  0
   -0.3615   28.2797   22.2466 N   0  0  0  0  0  0  0  0  0  0  0  0
   -1.7592   28.3638   22.6725 C   0  0  1  0  0  0  0  0  0  0  0  0
   -2.1279   27.1056   23.4651 C   0  0  2  0  0  0  0  0  0  0  0  0
   -2.0517   25.8041   22.6817 C   0  0  1  0  0  0  0  0  0  0  0  0
   -3.4057   26.4061   23.0268 C   0  0  1  0  0  0  0  0  0  0  0  0
    0.8191   26.5188   20.3090 C   0  0  0  0  0  0  0  0  0  0  0  0
    0.3501   25.6180   19.3470 C   0  0  0  0  0  0  0  0  0  0  0  0
    0.9539   25.5542   18.0896 C   0  0  0  0  0  0  0  0  0  0  0  0
    1.8826   27.3723   19.9971 C   0  0  0  0  0  0  0  0  0  0  0  0
    2.4778   27.3390   18.7281 C   0  0  0  0  0  0  0  0  0  0  0  0
    2.0325   26.4022   17.7708 C   0  0  0  0  0  0  0  0  0  0  0  0
    2.6907   26.3245   16.5327 O   0  0  0  0  0  0  0  0  0  0  0  0
    2.3313   25.4377   15.4787 C   0  0  2  0  0  0  0  0  0  0  0  0
    3.5534   28.2463   18.4425 N   0  0  0  0  0  0  0  0  0  0  0  0
    3.3367   29.5605   17.9170 C   0  0  0  0  0  0  0  0  0  0  0  0
    2.3985   29.8540   17.0469 O   0  0  0  0  0  0  0  0  0  0  0  0
    2.4949   31.1368   16.8017 C   0  0  0  0  0  0  0  0  0  0  0  0
    3.5334   31.6349   17.5679 C   0  0  0  0  0  0  0  0  0  0  0  0
    4.0732   30.6290   18.2839 N   0  0  0  0  0  0  0  0  0  0  0  0
    1.6223   31.8674   15.8555 C   0  0  0  0  0  0  0  0  0  0  0  0
    1.7253   33.2607   15.6859 C   0  0  0  0  0  0  0  0  0  0  0  0
    0.8911   33.9392   14.7772 C   0  0  0  0  0  0  0  0  0  0  0  0
   -0.0502   33.2042   14.0358 C   0  0  0  0  0  0  0  0  0  0  0  0
   -0.1561   31.8224   14.2003 C   0  0  0  0  0  0  0  0  0  0  0  0
    0.6733   31.1564   15.1036 C   0  0  0  0  0  0  0  0  0  0  0  0
    1.0034   35.4101   14.6031 C   0  0  0  0  0  0  0  0  0  0  0  0
    1.7523   35.9570   13.5457 C   0  0  0  0  0  0  0  0  0  0  0  0
    1.8486   37.3054   13.3971 N   0  0  0  0  0  0  0  0  0  0  0  0
    1.2322   38.1652   14.2497 C   0  0  0  0  0  0  0  0  0  0  0  0
    0.4777   37.6720   15.3142 C   0  0  0  0  0  0  0  0  0  0  0  0
    0.3642   36.2921   15.4914 C   0  0  0  0  0  0  0  0  0  0  0  0
   -0.2612   28.8154   21.3533 H   0  0  0  0  0  0  0  0  0  0  0  0
   -1.9251   29.2861   23.2746 H   0  0  0  0  0  0  0  0  0  0  0  0
   -2.4224   28.4055   21.7818 H   0  0  0  0  0  0  0  0  0  0  0  0
   -1.8760   27.0270   24.5443 H   0  0  0  0  0  0  0  0  0  0  0  0
   -1.7812   25.8901   21.6074 H   0  0  0  0  0  0  0  0  0  0  0  0
   -1.7885   24.9139   23.2912 H   0  0  0  0  0  0  0  0  0  0  0  0
   -3.9404   25.8744   23.8418 H   0  0  0  0  0  0  0  0  0  0  0  0
   -3.9371   26.8530   22.1592 H   0  0  0  0  0  0  0  0  0  0  0  0
   -0.4821   24.9621   19.5672 H   0  0  0  0  0  0  0  0  0  0  0  0
    0.5790   24.8348   17.3748 H   0  0  0  0  0  0  0  0  0  0  0  0
    2.2334   28.0843   20.7341 H   0  0  0  0  0  0  0  0  0  0  0  0
    2.2669   25.9914   14.5184 H   0  0  0  0  0  0  0  0  0  0  0  0
    1.3388   24.9954   15.7012 H   0  0  0  0  0  0  0  0  0  0  0  0
    3.0759   24.6173   15.4005 H   0  0  0  0  0  0  0  0  0  0  0  0
    4.5110   28.0123   18.7894 H   0  0  0  0  0  0  0  0  0  0  0  0
    3.8854   32.6561   17.6086 H   0  0  0  0  0  0  0  0  0  0  0  0
    2.4630   33.8202   16.2442 H   0  0  0  0  0  0  0  0  0  0  0  0
   -0.7166   33.7004   13.3415 H   0  0  0  0  0  0  0  0  0  0  0  0
   -0.8865   31.2655   13.6274 H   0  0  0  0  0  0  0  0  0  0  0  0
    0.5739   30.0831   15.2122 H   0  0  0  0  0  0  0  0  0  0  0  0
    2.2752   35.3151   12.8489 H   0  0  0  0  0  0  0  0  0  0  0  0
    1.3284   39.2324   14.1008 H   0  0  0  0  0  0  0  0  0  0  0  0
   -0.0177   38.3529   15.9941 H   0  0  0  0  0  0  0  0  0  0  0  0
   -0.2366   35.9157   16.3097 H   0  0  0  0  0  0  0  0  0  0  0  0
  1  2  2  0
  2  3  2  0
  2  4  1  1
  4  5  1  0
  5  6  1  0
  6  7  1  0
  6  8  1  0
  7  8  1  0
  2  9  1  0
  9 10  2  0
 10 11  1  0
  9 12  1  0
 12 13  2  0
 11 14  2  0
 13 14  1  0
 14 15  1  0
 15 16  1  0
 13 17  1  0
 17 18  1  0
 18 19  1  0
 19 20  1  0
 20 21  2  0
 18 22  2  0
 21 22  1  0
 20 23  1  0
 23 24  2  0
 24 25  1  0
 25 26  2  0
 26 27  1  0
 23 28  1  0
 27 28  2  0
 25 29  1  0
 29 30  2  0
 30 31  1  0
 31 32  2  0
 32 33  1  0
 29 34  1  0
 33 34  2  0
  4 35  1  0
  5 36  1  1
  5 37  1  0
  6 38  1  1
  7 39  1  6
  7 40  1  0
  8 41  1  1
  8 42  1  0
 10 43  1  0
 11 44  1  0
 12 45  1  0
 16 46  1  6
 16 47  1  0
 16 48  1  0
 17 49  1  0
 21 50  1  0
 24 51  1  0
 26 52  1  0
 27 53  1  0
 28 54  1  0
 30 55  1  0
 32 56  1  0
 33 57  1  0
 34 58  1  0
M  END
