7MFP_Z7P_D_401
     RDKit          3D

 50 53  0  0  0  0  0  0  0  0999 V2000
  -50.4243  -16.1284   22.3079 O   0  0  0  0  0  0  0  0  0  0  0  0
  -50.4766  -15.1355   23.0892 C   0  0  0  0  0  0  0  0  0  0  0  0
  -49.9379  -13.8937   22.7341 C   0  0  0  0  0  0  0  0  0  0  0  0
  -50.0054  -12.8354   23.6490 C   0  0  0  0  0  0  0  0  0  0  0  0
  -51.0527  -15.2515   24.3007 N   0  0  0  0  0  0  0  0  0  0  0  0
  -51.0745  -14.2545   25.2017 C   0  0  0  0  0  0  0  0  0  0  0  0
  -51.5914  -14.4421   26.3173 O   0  0  0  0  0  0  0  0  0  0  0  0
  -50.5392  -12.9896   24.8865 N   0  0  0  0  0  0  0  0  0  0  0  0
  -50.5654  -11.8890   25.8641 C   0  0  2  0  0  0  0  0  0  0  0  0
  -50.7816  -10.6249   25.2426 O   0  0  0  0  0  0  0  0  0  0  0  0
  -49.1656  -11.7260   26.4696 C   0  0  2  0  0  0  0  0  0  0  0  0
  -48.8232  -12.5898   27.5761 O   0  0  0  0  0  0  0  0  0  0  0  0
  -49.1554  -10.2963   26.9186 C   0  0  2  0  0  0  0  0  0  0  0  0
  -49.7807  -10.1680   28.2177 O   0  0  0  0  0  0  0  0  0  0  0  0
  -50.0886   -9.6117   25.9371 C   0  0  1  0  0  0  0  0  0  0  0  0
  -49.3624   -8.7657   24.9227 C   0  0  0  0  0  0  0  0  0  0  0  0
  -48.7797   -9.5821   23.9300 O   0  0  0  0  0  0  0  0  0  0  0  0
  -47.3902  -10.3066   24.1810 P   0  0  1  0  0  0  0  0  0  0  0  0
  -46.4454   -9.5184   25.0440 O   0  0  0  0  0  0  0  0  0  0  0  0
  -47.5812  -11.6888   24.6852 O   0  0  0  0  0  0  0  0  0  0  0  0
  -46.8113  -10.4445   22.6666 O   0  0  0  0  0  0  0  0  0  0  0  0
  -46.4231   -9.3400   21.5665 P   0  0  1  0  0  0  0  0  0  0  0  0
  -46.8554   -7.9514   22.0187 O   0  0  0  0  0  0  0  0  0  0  0  0
  -45.0469   -9.4669   21.0633 O   0  0  0  0  0  0  0  0  0  0  0  0
  -47.3122   -9.7898   20.2781 O   0  0  0  0  0  0  0  0  0  0  0  0
  -48.6446  -10.1575   20.5743 C   0  0  1  0  0  0  0  0  0  0  0  0
  -49.4591   -9.1191   20.0491 O   0  0  0  0  0  0  0  0  0  0  0  0
  -49.4432   -9.0644   18.6088 C   0  0  2  0  0  0  0  0  0  0  0  0
  -50.1298   -7.7829   18.1760 C   0  0  0  0  0  0  0  0  0  0  0  0
  -50.0544  -10.3293   18.0354 C   0  0  2  0  0  0  0  0  0  0  0  0
  -49.3072  -11.5867   18.5261 C   0  0  2  0  0  0  0  0  0  0  0  0
  -50.1498  -12.7262   18.2636 O   0  0  0  0  0  0  0  0  0  0  0  0
  -49.0273  -11.5572   20.0283 C   0  0  1  0  0  0  0  0  0  0  0  0
  -48.0378  -12.5253   20.3743 O   0  0  0  0  0  0  0  0  0  0  0  0
  -50.0135  -10.1909   16.5697 N   0  0  0  0  0  0  0  0  0  0  0  0
  -49.9336   -9.1041   15.9429 C   0  0  0  0  0  0  0  0  0  0  0  0
  -49.8354   -9.1242   14.4983 C   0  0  0  0  0  0  0  0  0  0  0  0
  -50.2050  -10.3363   13.7188 C   0  0  0  0  0  0  0  0  0  0  0  0
  -50.6553  -11.4567   14.3018 O   0  0  0  0  0  0  0  0  0  0  0  0
  -50.0845  -10.3023   12.2327 C   0  0  0  0  0  0  0  0  0  0  0  0
  -50.5028  -11.4988   11.4111 C   0  0  0  0  0  0  0  0  0  0  0  0
  -49.3147   -7.9790   13.7423 C   0  0  0  0  0  0  0  0  0  0  0  0
  -49.2407   -8.0851   12.3487 C   0  0  0  0  0  0  0  0  0  0  0  0
  -49.6327   -9.1852   11.6576 N   0  0  0  0  0  0  0  0  0  0  0  0
  -48.8854   -6.6820   14.4145 C   0  0  0  0  0  0  0  0  0  0  0  0
  -48.4323   -6.9582   15.7553 O   0  0  0  0  0  0  0  0  0  0  0  0
  -47.9729   -5.6834   16.6191 P   0  0  2  0  0  0  0  0  0  0  0  0
  -46.5560   -5.4056   16.1902 O   0  0  0  0  0  0  0  0  0  0  0  0
  -47.9979   -6.2479   18.0740 O   0  0  0  0  0  0  0  0  0  0  0  0
  -48.9088   -4.5014   16.5403 O   0  0  0  0  0  0  0  0  0  0  0  0
  1  2  2  0
  2  3  1  0
  3  4  2  0
  2  5  1  0
  5  6  1  0
  6  7  2  0
  4  8  1  0
  6  8  1  0
  9  8  1  6
  9 10  1  0
  9 11  1  0
 11 12  1  1
 11 13  1  0
 13 14  1  1
 10 15  1  0
 13 15  1  0
 15 16  1  6
 16 17  1  0
 17 18  1  0
 18 19  2  0
 18 20  1  1
 18 21  1  0
 21 22  1  0
 22 23  2  0
 22 24  1  6
 22 25  1  0
 26 25  1  6
 26 27  1  0
 27 28  1  0
 28 29  1  1
 28 30  1  0
 30 31  1  0
 31 32  1  1
 31 33  1  0
 26 33  1  0
 33 34  1  6
 30 35  1  6
 35 36  2  0
 36 37  1  0
 37 38  2  0
 38 39  1  0
 38 40  1  0
 40 41  1  0
 37 42  1  0
 42 43  2  0
 40 44  2  0
 43 44  1  0
 42 45  1  0
 45 46  1  0
 46 47  1  0
 47 48  1  6
 47 49  2  0
 47 50  1  0
M  END
