6YSP_PAL_C_401
     RDKit          3D

 16 15  0  0  0  0  0  0  0  0999 V2000
    9.5897   31.4007  -38.2534 P   0  0  1  0  0  0  0  0  0  0  0  0
    8.4512   31.8037  -39.1661 O   0  0  0  0  0  0  0  0  0  0  0  0
    9.9077   29.9274  -38.3016 O   0  0  0  0  0  0  0  0  0  0  0  0
   10.8204   32.2541  -38.4737 O   0  0  0  0  0  0  0  0  0  0  0  0
    9.0557   31.7848  -36.5387 C   0  0  0  0  0  0  0  0  0  0  0  0
    9.8940   30.9757  -35.5860 C   0  0  0  0  0  0  0  0  0  0  0  0
   10.9587   31.3480  -35.2022 O   0  0  0  0  0  0  0  0  0  0  0  0
    9.3009   29.7511  -35.2333 N   0  0  0  0  0  0  0  0  0  0  0  0
   10.1101   28.5876  -34.9067 C   0  0  2  0  0  0  0  0  0  0  0  0
   11.3440   28.3949  -35.7678 C   0  0  0  0  0  0  0  0  0  0  0  0
   11.6322   29.1260  -36.7529 O   0  0  0  0  0  0  0  0  0  0  0  0
   12.1022   27.4671  -35.3855 O   0  0  0  0  0  0  0  0  0  0  0  0
    9.1585   27.3898  -34.9712 C   0  0  0  0  0  0  0  0  0  0  0  0
    8.4149   27.2228  -36.2850 C   0  0  0  0  0  0  0  0  0  0  0  0
    8.6995   27.9574  -37.2617 O   0  0  0  0  0  0  0  0  0  0  0  0
    7.5483   26.3117  -36.3659 O   0  0  0  0  0  0  0  0  0  0  0  0
  1  2  2  0
  1  3  1  1
  1  4  1  0
  1  5  1  0
  5  6  1  0
  6  7  2  0
  6  8  1  0
  8  9  1  0
  9 10  1  0
 10 11  2  0
 10 12  1  0
  9 13  1  6
 13 14  1  0
 14 15  2  0
 14 16  1  0
M  END
