7TH4_FFO_A_501
     RDKit          3D

 34 36  0  0  0  0  0  0  0  0999 V2000
    0.6902   -4.8913  -27.6368 N   0  0  0  0  0  0  0  0  0  0  0  0
    1.0544   -5.4604  -28.8077 C   0  0  0  0  0  0  0  0  0  0  0  0
    2.3031   -5.1297  -29.4269 N   0  0  0  0  0  0  0  0  0  0  0  0
    0.2851   -6.3574  -29.4577 N   0  0  0  0  0  0  0  0  0  0  0  0
   -0.9169   -6.7181  -28.9243 C   0  0  0  0  0  0  0  0  0  0  0  0
   -1.6829   -7.5406  -29.4692 O   0  0  0  0  0  0  0  0  0  0  0  0
   -1.2874   -6.1449  -27.7404 C   0  0  0  0  0  0  0  0  0  0  0  0
   -2.5314   -6.4517  -27.0732 N   0  0  0  0  0  0  0  0  0  0  0  0
   -3.1333   -5.3795  -26.3437 C   0  0  2  0  0  0  0  0  0  0  0  0
   -2.1890   -5.0499  -25.1846 C   0  0  0  0  0  0  0  0  0  0  0  0
   -0.9300   -4.6488  -25.8308 N   0  0  0  0  0  0  0  0  0  0  0  0
   -0.4938   -5.2125  -27.0602 C   0  0  0  0  0  0  0  0  0  0  0  0
   -4.5109   -5.6373  -25.8139 C   0  0  0  0  0  0  0  0  0  0  0  0
   -4.5235   -6.0634  -24.4497 N   0  0  0  0  0  0  0  0  0  0  0  0
   -4.0682  -10.0855  -23.2720 C   0  0  0  0  0  0  0  0  0  0  0  0
   -3.2569   -9.0908  -22.7783 C   0  0  0  0  0  0  0  0  0  0  0  0
   -3.3873   -7.7562  -23.1514 C   0  0  0  0  0  0  0  0  0  0  0  0
   -4.3685   -7.4062  -24.0539 C   0  0  0  0  0  0  0  0  0  0  0  0
   -5.1933   -8.3865  -24.5619 C   0  0  0  0  0  0  0  0  0  0  0  0
   -5.0477   -9.7030  -24.1795 C   0  0  0  0  0  0  0  0  0  0  0  0
   -3.9471  -11.4888  -22.8978 C   0  0  0  0  0  0  0  0  0  0  0  0
   -4.5609  -12.3741  -23.5856 O   0  0  0  0  0  0  0  0  0  0  0  0
   -3.1605  -11.8846  -21.7858 N   0  0  0  0  0  0  0  0  0  0  0  0
   -2.9025  -13.3363  -21.5232 C   0  0  1  0  0  0  0  0  0  0  0  0
   -1.4629  -13.5211  -21.8187 C   0  0  0  0  0  0  0  0  0  0  0  0
   -0.9312  -13.2278  -23.1556 C   0  0  0  0  0  0  0  0  0  0  0  0
    0.4700  -13.4906  -23.4442 C   0  0  0  0  0  0  0  0  0  0  0  0
    1.2082  -13.9403  -22.4975 O   0  0  0  0  0  0  0  0  0  0  0  0
    0.9987  -13.2640  -24.7064 O   0  0  0  0  0  0  0  0  0  0  0  0
   -3.3607  -13.5954  -20.1613 C   0  0  0  0  0  0  0  0  0  0  0  0
   -3.4877  -12.7445  -19.2457 O   0  0  0  0  0  0  0  0  0  0  0  0
   -3.7132  -14.9129  -19.7655 O   0  0  0  0  0  0  0  0  0  0  0  0
   -3.0128   -7.7709  -27.1819 C   0  0  0  0  0  0  0  0  0  0  0  0
   -4.1856   -8.0274  -27.6141 O   0  0  0  0  0  0  0  0  0  0  0  0
  1  2  2  0
  2  3  1  0
  2  4  1  0
  4  5  1  0
  5  6  2  0
  5  7  1  0
  7  8  1  0
  9  8  1  1
  9 10  1  0
 10 11  1  6
  1 12  1  0
  7 12  2  0
 11 12  1  0
  9 13  1  0
 13 14  1  1
 15 16  2  0
 16 17  1  0
 14 18  1  0
 17 18  2  0
 18 19  1  0
 15 20  1  0
 19 20  2  0
 15 21  1  0
 21 22  2  0
 21 23  1  0
 24 23  1  1
 24 25  1  0
 25 26  1  1
 26 27  1  6
 27 28  2  0
 27 29  1  0
 24 30  1  0
 30 31  2  0
 30 32  1  0
  8 33  1  0
 33 34  2  0
M  END
$$$$
