
     RDKit          3D

 20 20  0  0  0  0  0  0  0  0999 V2000
   53.9470  -44.4475  -12.2691 Cl  0  0  0  0  0  0  0  0  0  0  0  0
   50.8461  -45.9677  -14.9624 O   0  0  0  0  0  0  0  0  0  0  0  0
   50.7634  -44.6266  -14.4360 S   0  0  0  0  0  6  0  0  0  0  0  0
   51.7642  -43.6168  -14.6767 O   0  0  0  0  0  0  0  0  0  0  0  0
   49.3252  -44.0225  -15.0597 N   0  0  0  0  0  0  0  0  0  0  0  0
   50.4624  -44.6911  -12.6896 C   0  0  0  0  0  0  0  0  0  0  0  0
   49.2467  -44.1869  -12.2088 C   0  0  0  0  0  0  0  0  0  0  0  0
   48.9627  -44.2213  -10.8352 C   0  0  0  0  0  0  0  0  0  0  0  0
   47.4091  -43.5448  -10.2974 S   0  0  0  0  0  6  0  0  0  0  0  0
   46.8565  -44.4145   -9.2859 O   0  0  0  0  0  0  0  0  0  0  0  0
   46.4618  -43.6967  -11.6812 N   0  0  0  0  0  0  0  0  0  0  0  0
   47.5790  -42.1243  -10.0799 O   0  0  0  0  0  0  0  0  0  0  0  0
   49.8559  -44.8048   -9.9272 C   0  0  0  0  0  0  0  0  0  0  0  0
   49.6841  -44.7577   -8.5348 N   0  0  0  0  0  0  0  0  0  0  0  0
   51.0953  -45.2409  -10.4241 C   0  0  0  0  0  0  0  0  0  0  0  0
   51.4109  -45.2138  -11.7994 C   0  0  0  0  0  0  0  0  0  0  0  0
   52.7446  -45.7019  -12.2000 C   0  0  0  0  0  0  0  0  0  0  0  0
   53.0229  -46.9943  -12.4571 C   0  0  0  0  0  0  0  0  0  0  0  0
   54.6100  -47.5434  -12.8928 Cl  0  0  0  0  0  0  0  0  0  0  0  0
   51.8094  -48.2365  -12.3625 Cl  0  0  0  0  0  0  0  0  0  0  0  0
  2  3  2  0
  3  4  2  0
  3  5  1  0
  3  6  1  0
  6  7  4  0
  7  8  4  0
  8  9  1  0
  9 10  2  0
  9 11  1  0
  9 12  2  0
  8 13  4  0
 13 14  1  0
 13 15  4  0
 15 16  4  0
  6 16  4  0
  1 17  1  0
 16 17  1  0
 17 18  2  3
 18 19  1  0
 18 20  1  0
M  END
