
     RDKit          3D

 27 29  0  0  0  0  0  0  0  0999 V2000
   16.9192    4.8645    5.7342 O   0  0  0  0  0  0  0  0  0  0  0  0
   17.9861    4.2601    5.8337 C   0  0  0  0  0  0  0  0  0  0  0  0
   18.0140    3.2140    6.7209 N   0  0  0  0  0  0  0  0  0  0  0  0
   19.0731    2.3920    6.9243 C   0  0  0  0  0  0  0  0  0  0  0  0
   19.0908    1.4246    7.6670 O   0  0  0  0  0  0  0  0  0  0  0  0
   19.1842    4.5121    5.1364 N   0  0  0  0  0  0  0  0  0  0  0  0
   20.3273    3.7388    5.3127 N   0  0  0  0  0  0  0  0  0  0  0  0
   20.2883    2.7495    6.1414 C   0  0  0  0  0  0  0  0  0  0  0  0
   19.3582    5.5762    4.1727 C   0  0  0  0  0  0  0  0  0  0  0  0
   20.1895    6.6748    4.4789 C   0  0  0  0  0  0  0  0  0  0  0  0
   20.4010    7.7364    3.5816 C   0  0  0  0  0  0  0  0  0  0  0  0
   21.3079    8.8689    3.9699 C   0  0  0  0  0  0  0  0  0  0  0  0
   18.7296    5.5872    2.9179 C   0  0  0  0  0  0  0  0  0  0  0  0
   18.9224    6.6330    1.9941 C   0  0  0  0  0  0  0  0  0  0  0  0
   18.2340    6.5867    0.6581 C   0  0  0  0  0  0  0  0  0  0  0  0
   19.7929    7.6802    2.3227 C   0  0  0  0  0  0  0  0  0  0  0  0
   19.9871    8.6976    1.4174 O   0  0  0  0  0  0  0  0  0  0  0  0
   21.1801    8.7315    0.7232 C   0  0  0  0  0  0  0  0  0  0  0  0
   21.4442    7.5998   -0.0480 C   0  0  0  0  0  0  0  0  0  0  0  0
   22.1101    9.7770    0.7534 C   0  0  0  0  0  0  0  0  0  0  0  0
   23.3057    9.7119    0.0094 C   0  0  0  0  0  0  0  0  0  0  0  0
   24.2720   10.8843    0.0887 C   0  0  0  0  0  0  0  0  0  0  0  0
   23.6051   12.2180   -0.2588 C   0  0  0  0  0  0  0  0  0  0  0  0
   25.5341   10.6551   -0.7466 C   0  0  0  0  0  0  0  0  0  0  0  0
   23.5387    8.5651   -0.7617 C   0  0  0  0  0  0  0  0  0  0  0  0
   22.6199    7.5148   -0.7924 C   0  0  0  0  0  0  0  0  0  0  0  0
   24.6869    8.4683   -1.4951 O   0  0  0  0  0  0  0  0  0  0  0  0
  1  2  2  0
  2  3  4  0
  3  4  4  0
  4  5  2  0
  2  6  4  0
  6  7  4  0
  4  8  4  0
  7  8  4  0
  6  9  1  0
  9 10  4  0
 10 11  4  0
 11 12  1  0
  9 13  4  0
 13 14  4  0
 14 15  1  0
 11 16  4  0
 14 16  4  0
 16 17  1  0
 17 18  1  0
 18 19  4  0
 18 20  4  0
 20 21  4  0
 21 22  1  0
 22 23  1  0
 22 24  1  0
 21 25  4  0
 19 26  4  0
 25 26  4  0
 25 27  1  0
M  END
