7T3E_SLB_A_301
     RDKit          3D

 21 21  0  0  0  0  0  0  0  0999 V2000
   30.8504  -23.6175   -1.4595 C   0  0  0  0  0  0  0  0  0  0  0  0
   29.5198  -23.5282   -2.1223 C   0  0  1  0  0  0  0  0  0  0  0  0
   28.7233  -24.7147   -1.6795 C   0  0  0  0  0  0  0  0  0  0  0  0
   27.5677  -25.0473   -2.5985 C   0  0  1  0  0  0  0  0  0  0  0  0
   28.0672  -24.9597   -3.9962 C   0  0  2  0  0  0  0  0  0  0  0  0
   28.5564  -23.5584   -4.2247 C   0  0  2  0  0  0  0  0  0  0  0  0
   28.9697  -23.3221   -5.6615 C   0  0  1  0  0  0  0  0  0  0  0  0
   29.5769  -21.9413   -5.8134 C   0  0  1  0  0  0  0  0  0  0  0  0
   29.7860  -21.6147   -7.2837 C   0  0  0  0  0  0  0  0  0  0  0  0
   27.4583  -26.4633   -5.9343 C   0  0  0  0  0  0  0  0  0  0  0  0
   26.4465  -26.7478   -6.9868 C   0  0  0  0  0  0  0  0  0  0  0  0
   27.1613  -25.4262   -5.0022 N   0  0  0  0  0  0  0  0  0  0  0  0
   31.2552  -24.7278   -0.9773 O   0  0  0  0  0  0  0  0  0  0  0  0
   31.6979  -22.5337   -1.3328 O   0  0  0  0  0  0  0  0  0  0  0  0
   28.9453  -22.3212   -1.7435 O   0  0  0  0  0  0  0  0  0  0  0  0
   27.2635  -26.3877   -2.3277 O   0  0  0  0  0  0  0  0  0  0  0  0
   29.7461  -23.4719   -3.4841 O   0  0  0  0  0  0  0  0  0  0  0  0
   30.0396  -24.2192   -5.8864 O   0  0  0  0  0  0  0  0  0  0  0  0
   28.7884  -20.9570   -5.2504 O   0  0  0  0  0  0  0  0  0  0  0  0
   30.3191  -20.3266   -7.3926 O   0  0  0  0  0  0  0  0  0  0  0  0
   28.5223  -27.1080   -5.8731 O   0  0  0  0  0  0  0  0  0  0  0  0
  1  2  1  0
  3  2  1  1
  3  4  1  0
  4  5  1  0
  5  6  1  0
  6  7  1  0
  7  8  1  0
  8  9  1  0
 11 10  1  6
  5 12  1  6
 10 12  1  0
  1 13  2  0
  1 14  1  0
  2 15  1  1
  4 16  1  1
  2 17  1  0
  6 17  1  1
  7 18  1  1
  8 19  1  6
  9 20  1  1
 10 21  2  0
M  END
$$$$
