1T9B_1CS_B_1695
     RDKit          3D

 35 36  0  0  0  0  0  0  0  0999 V2000
   11.9576   45.7385  129.7151 C   0  0  2  0  0  0  0  0  0  0  0  0
   12.1823   44.3493  129.5047 O   0  0  0  0  0  0  0  0  0  0  0  0
   12.7914   43.8501  128.3507 C   0  0  0  0  0  0  0  0  0  0  0  0
   12.9859   44.6723  127.2896 N   0  0  0  0  0  0  0  0  0  0  0  0
   13.5676   44.2005  126.1571 C   0  0  0  0  0  0  0  0  0  0  0  0
   13.8143   45.1169  125.0057 C   0  0  2  0  0  0  0  0  0  0  0  0
   13.9769   42.9071  126.0968 N   0  0  0  0  0  0  0  0  0  0  0  0
   13.7877   42.0768  127.1547 C   0  0  0  0  0  0  0  0  0  0  0  0
   14.2158   40.7093  127.0655 N   0  0  0  0  0  0  0  0  0  0  0  0
   13.6718   39.6339  127.8475 C   0  0  0  0  0  0  0  0  0  0  0  0
   13.6610   39.6968  129.1069 O   0  0  0  0  0  0  0  0  0  0  0  0
   13.1413   38.4796  127.1882 N   0  0  0  0  0  0  0  0  0  0  0  0
   11.4893   37.9962  127.3842 S   0  0  1  0  0  6  0  0  0  0  0  0
   10.9591   37.4772  126.0774 O   0  0  0  0  0  0  0  0  0  0  0  0
   11.4209   36.8928  128.4029 O   0  0  0  0  0  0  0  0  0  0  0  0
   10.5168   39.3821  127.8921 C   0  0  0  0  0  0  0  0  0  0  0  0
   10.2050   39.5481  129.2514 C   0  0  0  0  0  0  0  0  0  0  0  0
    9.4497   40.6444  129.6753 C   0  0  0  0  0  0  0  0  0  0  0  0
    8.9990   41.5846  128.7474 C   0  0  0  0  0  0  0  0  0  0  0  0
    9.3030   41.4309  127.3931 C   0  0  0  0  0  0  0  0  0  0  0  0
   10.0597   40.3358  126.9575 C   0  0  0  0  0  0  0  0  0  0  0  0
   13.1918   42.5533  128.2791 N   0  0  0  0  0  0  0  0  0  0  0  0
   10.4132   40.1979  125.2385 Cl  0  0  0  0  0  0  0  0  0  0  0  0
   10.8838   45.9633  129.5510 H   0  0  0  0  0  0  0  0  0  0  0  0
   12.5636   46.3345  129.0000 H   0  0  0  0  0  0  0  0  0  0  0  0
   12.2280   46.0143  130.7565 H   0  0  0  0  0  0  0  0  0  0  0  0
   12.9159   45.7407  124.8133 H   0  0  0  0  0  0  0  0  0  0  0  0
   14.0419   44.5299  124.0909 H   0  0  0  0  0  0  0  0  0  0  0  0
   14.6746   45.7784  125.2381 H   0  0  0  0  0  0  0  0  0  0  0  0
   14.9695   40.4815  126.3786 H   0  0  0  0  0  0  0  0  0  0  0  0
   13.7510   37.9226  126.5494 H   0  0  0  0  0  0  0  0  0  0  0  0
   10.5472   38.8326  129.9874 H   0  0  0  0  0  0  0  0  0  0  0  0
    9.2143   40.7655  130.7249 H   0  0  0  0  0  0  0  0  0  0  0  0
    8.4143   42.4334  129.0779 H   0  0  0  0  0  0  0  0  0  0  0  0
    8.9497   42.1658  126.6809 H   0  0  0  0  0  0  0  0  0  0  0  0
  1  2  1  0
  2  3  1  0
  3  4  2  0
  4  5  1  0
  5  6  1  0
  5  7  2  0
  7  8  1  0
  8  9  1  0
  9 10  1  0
 10 11  2  0
 10 12  1  0
 13 12  1  6
 13 14  2  0
 13 15  2  0
 13 16  1  0
 16 17  2  0
 17 18  1  0
 18 19  2  0
 19 20  1  0
 16 21  1  0
 20 21  2  0
  3 22  1  0
  8 22  2  0
 21 23  1  0
  1 24  1  6
  1 25  1  0
  1 26  1  0
  6 27  1  6
  6 28  1  0
  6 29  1  0
  9 30  1  0
 12 31  1  0
 17 32  1  0
 18 33  1  0
 19 34  1  0
 20 35  1  0
M  END
