7OKF_VH5_A_201
     RDKit          3D

 28 31  0  0  0  0  0  0  0  0999 V2000
  -26.5503    9.0920   12.8848 C   0  0  0  0  0  0  0  0  0  0  0  0
  -25.7057    9.0286   14.0016 C   0  0  0  0  0  0  0  0  0  0  0  0
  -24.6917    8.1041   13.9167 C   0  0  0  0  0  0  0  0  0  0  0  0
  -24.5149    7.2856   12.7992 C   0  0  0  0  0  0  0  0  0  0  0  0
  -25.1503   10.0040   16.2564 C   0  0  0  0  0  0  0  0  0  0  0  0
  -25.3803   10.8717   17.2919 C   0  0  0  0  0  0  0  0  0  0  0  0
  -23.4676   10.1122   18.5188 C   0  0  0  0  0  0  0  0  0  0  0  0
  -23.2394    9.2410   17.4744 C   0  0  0  0  0  0  0  0  0  0  0  0
  -21.3171    8.4816   18.7011 C   0  0  0  0  0  0  0  0  0  0  0  0
  -27.6462   10.0297   12.8717 C   0  0  0  0  0  0  0  0  0  0  0  0
  -28.5251   10.7666   12.8712 N   0  0  0  0  0  0  0  0  0  0  0  0
  -25.3714    7.4047   11.7592 N   0  0  0  0  0  0  0  0  0  0  0  0
  -26.3858    8.2972   11.7885 C   0  0  0  0  0  0  0  0  0  0  0  0
  -27.4848    8.4324   10.4236 Cl  0  0  0  0  0  0  0  0  0  0  0  0
  -25.9495    9.8694   15.1050 N   0  0  0  0  0  0  0  0  0  0  0  0
  -24.0449    9.1685   16.3594 C   0  0  0  0  0  0  0  0  0  0  0  0
  -22.1439    8.4143   17.5739 C   0  0  0  0  0  0  0  0  0  0  0  0
  -21.7767    7.4570   16.5956 N   0  0  0  0  0  0  0  0  0  0  0  0
  -21.1646    6.1921   16.8595 C   0  0  0  0  0  0  0  0  0  0  0  0
  -21.7391    5.1793   15.8674 C   0  0  0  0  0  0  0  0  0  0  0  0
  -21.2156    5.5392   14.5656 N   0  0  0  0  0  0  0  0  0  0  0  0
  -21.7057    4.7292   13.4945 C   0  0  0  0  0  0  0  0  0  0  0  0
  -21.1516    6.9403   14.3128 C   0  0  0  0  0  0  0  0  0  0  0  0
  -22.0449    7.7855   15.1883 C   0  0  0  0  0  0  0  0  0  0  0  0
  -21.5911    9.3772   19.7253 C   0  0  0  0  0  0  0  0  0  0  0  0
  -20.8423    9.4280   20.7307 O   0  0  0  0  0  0  0  0  0  0  0  0
  -22.6809   10.1863   19.6070 N   0  0  0  0  0  0  0  0  0  0  0  0
  -24.5632   10.9424   18.4189 C   0  0  0  0  0  0  0  0  0  0  0  0
  1  2  2  0
  2  3  1  0
  3  4  2  0
  5  6  2  0
  7  8  1  0
  1 10  1  0
 10 11  3  0
  4 12  1  0
 12 13  2  0
  1 13  1  0
 13 14  1  0
  2 15  1  0
  5 15  1  0
  5 16  1  0
  8 16  2  0
  8 17  1  0
  9 17  2  0
 17 18  1  0
 18 19  1  0
 19 20  1  0
 20 21  1  0
 21 22  1  0
 21 23  1  0
 18 24  1  0
 23 24  1  0
  9 25  1  0
 25 26  2  0
  7 27  1  0
 25 27  1  0
  6 28  1  0
  7 28  2  0
M  END
$$$$
