1LPZ_CMB_B_301
     RDKit          3D

 32 35  0  0  0  0  0  0  0  0999 V2000
    8.1514   10.7468   26.3422 C   0  0  0  0  0  0  0  0  0  0  0  0
    9.0171    9.8234   25.7377 C   0  0  0  0  0  0  0  0  0  0  0  0
    9.0941    9.7199   24.3189 C   0  0  0  0  0  0  0  0  0  0  0  0
    8.3522   10.5325   23.4632 C   0  0  0  0  0  0  0  0  0  0  0  0
    7.4495   11.4898   24.0902 C   0  0  0  0  0  0  0  0  0  0  0  0
    7.3585   11.5680   25.5062 C   0  0  0  0  0  0  0  0  0  0  0  0
    9.8008    8.7937   23.5637 N   0  0  0  0  0  0  0  0  0  0  0  0
    9.5231    9.0766   22.2345 C   0  0  0  0  0  0  0  0  0  0  0  0
    8.6351   10.2179   22.1172 C   0  0  0  0  0  0  0  0  0  0  0  0
    6.6465   12.4139   23.2675 C   0  0  0  0  0  0  0  0  0  0  0  0
   10.0147    8.3305   21.1320 C   0  0  0  0  0  0  0  0  0  0  0  0
    9.4162    8.4897   19.9264 N   0  0  0  0  0  0  0  0  0  0  0  0
    9.8673    7.6981   18.7814 C   0  0  0  0  0  0  0  0  0  0  0  0
    9.6166    6.1926   18.8326 C   0  0  0  0  0  0  0  0  0  0  0  0
   10.5351    7.6517   24.1250 C   0  0  0  0  0  0  0  0  0  0  0  0
   11.7187    8.0374   24.9753 C   0  0  0  0  0  0  0  0  0  0  0  0
   12.7011    8.9822   24.6090 C   0  0  0  0  0  0  0  0  0  0  0  0
   13.8621    9.1293   25.3920 C   0  0  0  0  0  0  0  0  0  0  0  0
   13.9973    8.3401   26.5511 C   0  0  0  0  0  0  0  0  0  0  0  0
   12.9667    7.4518   26.9383 C   0  0  0  0  0  0  0  0  0  0  0  0
   11.8365    7.3048   26.1467 C   0  0  0  0  0  0  0  0  0  0  0  0
    9.9812    5.3942   17.7370 C   0  0  0  0  0  0  0  0  0  0  0  0
    9.6651    4.0270   17.6782 C   0  0  0  0  0  0  0  0  0  0  0  0
    8.9827    3.4434   18.7586 C   0  0  0  0  0  0  0  0  0  0  0  0
    8.6088    4.2179   19.8741 C   0  0  0  0  0  0  0  0  0  0  0  0
    8.9412    5.5891   19.9041 C   0  0  0  0  0  0  0  0  0  0  0  0
   12.9835    6.6716   28.1635 C   0  0  0  0  0  0  0  0  0  0  0  0
   13.0134    5.3372   28.1720 N   0  0  0  0  0  0  0  0  0  0  0  0
   10.0395    3.0983   16.2349 Cl  0  0  0  0  0  0  0  0  0  0  0  0
    7.6758    3.5198   21.1971 Cl  0  0  0  0  0  0  0  0  0  0  0  0
   10.9515    7.5396   21.2708 O   0  0  0  0  0  0  0  0  0  0  0  0
   12.9132    7.3716   29.2890 N   0  0  0  0  0  0  0  0  0  0  0  0
  1  2  2  0
  2  3  1  0
  3  4  2  0
  4  5  1  0
  1  6  1  0
  5  6  2  0
  3  7  1  0
  7  8  1  0
  4  9  1  0
  8  9  2  0
  5 10  1  0
  8 11  1  0
 11 12  1  0
 12 13  1  0
 13 14  1  0
  7 15  1  0
 15 16  1  0
 16 17  2  0
 17 18  1  0
 18 19  2  0
 19 20  1  0
 16 21  1  0
 20 21  2  0
 14 22  2  0
 22 23  1  0
 23 24  2  0
 24 25  1  0
 14 26  1  0
 25 26  2  0
 20 27  1  0
 27 28  2  0
 23 29  1  0
 25 30  1  0
 11 31  2  0
 27 32  1  0
M  END
