
     RDKit          3D

 21 23  0  0  0  0  0  0  0  0999 V2000
   31.3191   56.1541   14.2463 C   0  0  0  0  0  0  0  0  0  0  0  0
   32.1772   54.4500   15.7497 C   0  0  0  0  0  0  0  0  0  0  0  0
   33.4488   52.4902   15.6636 C   0  0  0  0  0  0  0  0  0  0  0  0
   33.1791   47.7464   17.2506 C   0  0  0  0  0  0  0  0  0  0  0  0
   32.8295   49.3924   15.6764 C   0  0  0  0  0  0  0  0  0  0  0  0
   31.1797   52.3697   16.6099 C   0  0  0  0  0  0  0  0  0  0  0  0
   30.0537   51.6715   17.0821 C   0  0  0  0  0  0  0  0  0  0  0  0
   28.8806   52.3496   17.4261 C   0  0  0  0  0  0  0  0  0  0  0  0
   28.7937   53.7291   17.2872 C   0  0  0  0  0  0  0  0  0  0  0  0
   29.8772   54.4290   16.7635 C   0  0  0  0  0  0  0  0  0  0  0  0
   31.0471   53.7438   16.3991 C   0  0  0  0  0  0  0  0  0  0  0  0
   27.5306   51.4678   18.0266 Cl  0  0  0  0  0  0  0  0  0  0  0  0
   32.0527   55.8143   15.4739 N   0  0  0  0  0  0  0  0  0  0  0  0
   33.2765   56.6179   15.6087 C   0  0  0  0  0  0  0  0  0  0  0  0
   32.4213   51.7501   16.2791 N   0  0  0  0  0  0  0  0  0  0  0  0
   34.5243   51.9773   15.3581 O   0  0  0  0  0  0  0  0  0  0  0  0
   33.2644   53.8269   15.4220 N   0  0  0  0  0  0  0  0  0  0  0  0
   32.6671   50.3875   16.6421 C   0  0  0  0  0  0  0  0  0  0  0  0
   33.0590   48.0823   15.9507 N   0  0  0  0  0  0  0  0  0  0  0  0
   33.0761   48.6560   18.2885 C   0  0  0  0  0  0  0  0  0  0  0  0
   32.8225   49.9915   17.9771 C   0  0  0  0  0  0  0  0  0  0  0  0
  6  7  4  0
  7  8  4  0
  8  9  4  0
  9 10  4  0
  2 11  4  0
 10 11  4  0
  6 11  4  0
  8 12  1  0
  1 13  1  0
  2 13  1  0
 13 14  1  0
  3 15  4  0
  6 15  4  0
  3 16  2  0
  2 17  4  0
  3 17  4  0
 15 18  1  0
  5 18  4  0
  5 19  4  0
  4 19  4  0
  4 20  4  0
 18 21  4  0
 20 21  4  0
M  END
