
     RDKit          3D

 24 25  0  0  0  0  0  0  0  0999 V2000
    2.3435    6.7024   16.7103 C   0  0  0  0  0  0  0  0  0  0  0  0
    2.3071    7.8156   17.5501 C   0  0  0  0  0  0  0  0  0  0  0  0
    3.2951    8.7971   17.4489 C   0  0  0  0  0  0  0  0  0  0  0  0
   -1.8298    7.7922   16.4669 C   0  0  0  0  0  0  0  0  0  0  0  0
   -3.3334    9.5448   15.6136 C   0  0  0  0  0  0  0  0  0  0  0  0
   -2.6131    8.2646   15.4051 C   0  0  0  0  0  0  0  0  0  0  0  0
   -2.6678    7.5227   14.2156 C   0  0  0  0  0  0  0  0  0  0  0  0
   -1.9548    6.3290   14.0857 C   0  0  0  0  0  0  0  0  0  0  0  0
   -1.1666    5.8655   15.1385 C   0  0  0  0  0  0  0  0  0  0  0  0
   -1.0946    6.6094   16.3189 C   0  0  0  0  0  0  0  0  0  0  0  0
    4.3224    8.6746   16.5042 C   0  0  0  0  0  0  0  0  0  0  0  0
    5.4203    9.7079   16.4289 C   0  0  0  0  0  0  0  0  0  0  0  0
    6.2212    9.7641   17.7331 C   0  0  0  0  0  0  0  0  0  0  0  0
    6.9538    8.4586   18.0488 C   0  0  0  0  0  0  0  0  0  0  0  0
    7.6275    8.4562   19.4123 C   0  0  0  0  0  0  0  0  0  0  0  0
    4.3412    7.5586   15.6577 C   0  0  0  0  0  0  0  0  0  0  0  0
    3.3531    6.5778   15.7585 C   0  0  0  0  0  0  0  0  0  0  0  0
    1.3893    5.6644   16.8995 N   0  0  0  0  0  0  0  0  0  0  0  0
   -4.1545    9.5188   16.6838 O   0  0  0  0  0  0  0  0  0  0  0  0
   -3.4002    7.8953   13.1215 O   0  0  0  0  0  0  0  0  0  0  0  0
   -0.6230    4.7687   18.1083 O   0  0  0  0  0  0  0  0  0  0  0  0
    0.1150    7.1332   18.5798 O   0  0  0  0  0  0  0  0  0  0  0  0
   -3.2368   10.5445   14.9279 O   0  0  0  0  0  0  0  0  0  0  0  0
   -0.0750    6.0322   17.6611 S   0  0  0  0  0  6  0  0  0  0  0  0
  1  2  4  0
  2  3  4  0
  4  6  4  0
  5  6  1  0
  6  7  4  0
  7  8  4  0
  8  9  4  0
  4 10  4  0
  9 10  4  0
  3 11  4  0
 11 12  1  0
 12 13  1  0
 13 14  1  0
 14 15  1  0
 11 16  4  0
 16 17  4  0
  1 17  4  0
  1 18  1  0
  5 19  1  0
  7 20  1  0
  5 23  2  0
 21 24  2  0
 22 24  2  0
 18 24  1  0
 10 24  1  0
M  END
