7OEO_V9Z_AAA_501
     RDKit          3D

 32 34  0  0  0  0  0  0  0  0999 V2000
  -18.9977   -6.6424  -22.5803 N   0  0  0  0  0  0  0  0  0  0  0  0
  -18.0329   -6.5458  -23.6220 C   0  0  0  0  0  0  0  0  0  0  0  0
  -15.1290   -6.8922  -26.9959 C   0  0  0  0  0  0  0  0  0  0  0  0
  -22.1676   -2.9016  -23.1205 C   0  0  0  0  0  0  0  0  0  0  0  0
  -21.9444   -4.3533  -23.2372 N   0  0  0  0  0  0  0  0  0  0  0  0
  -20.6322   -4.8567  -22.9136 C   0  0  0  0  0  0  0  0  0  0  0  0
  -19.7872   -3.9792  -22.6273 O   0  0  0  0  0  0  0  0  0  0  0  0
  -20.3887   -6.3062  -22.9410 C   0  0  0  0  0  0  0  0  0  0  0  0
  -18.2151   -7.1237  -24.9477 C   0  0  1  0  0  0  0  0  0  0  0  0
  -17.3999   -6.8110  -26.1036 C   0  0  0  0  0  0  0  0  0  0  0  0
  -16.0165   -7.1051  -25.9743 C   0  0  0  0  0  0  0  0  0  0  0  0
  -15.5503   -6.3822  -28.1951 C   0  0  0  0  0  0  0  0  0  0  0  0
  -16.8684   -6.0845  -28.3676 C   0  0  0  0  0  0  0  0  0  0  0  0
  -17.7588   -6.3091  -27.3101 C   0  0  0  0  0  0  0  0  0  0  0  0
  -17.9873   -8.6325  -24.7064 C   0  0  0  0  0  0  0  0  0  0  0  0
  -16.6981   -9.0690  -24.9245 C   0  0  0  0  0  0  0  0  0  0  0  0
  -16.4134  -10.3983  -24.7091 C   0  0  0  0  0  0  0  0  0  0  0  0
  -17.4217  -11.2542  -24.2825 C   0  0  0  0  0  0  0  0  0  0  0  0
  -18.6965  -10.7830  -24.0750 C   0  0  0  0  0  0  0  0  0  0  0  0
  -19.0008   -9.4358  -24.2899 C   0  0  0  0  0  0  0  0  0  0  0  0
  -18.7481   -7.0193  -21.2355 C   0  0  0  0  0  0  0  0  0  0  0  0
  -19.7308   -7.1880  -20.4335 O   0  0  0  0  0  0  0  0  0  0  0  0
  -17.4301   -7.2325  -20.6728 C   0  0  0  0  0  0  0  0  0  0  0  0
  -16.8946   -8.5162  -20.8339 C   0  0  0  0  0  0  0  0  0  0  0  0
  -15.6571   -8.8644  -20.3554 C   0  0  0  0  0  0  0  0  0  0  0  0
  -15.1085  -10.2354  -20.5399 C   0  0  0  0  0  0  0  0  0  0  0  0
  -14.9183   -7.8944  -19.6864 C   0  0  0  0  0  0  0  0  0  0  0  0
  -13.6668   -8.2692  -19.2087 O   0  0  0  0  0  0  0  0  0  0  0  0
  -12.4963   -7.5179  -19.4239 C   0  0  0  0  0  0  0  0  0  0  0  0
  -15.4339   -6.6164  -19.5171 C   0  0  0  0  0  0  0  0  0  0  0  0
  -14.5890   -5.6384  -18.7961 C   0  0  0  0  0  0  0  0  0  0  0  0
  -16.6890   -6.2867  -20.0104 C   0  0  0  0  0  0  0  0  0  0  0  0
  2  1  1  1
  4  5  1  1
  5  6  1  0
  6  7  2  0
  8  1  1  6
  6  8  1  0
  2  9  1  0
  9 10  1  6
  3 11  2  0
 10 11  1  0
  3 12  1  0
 12 13  2  0
 13 14  1  0
 10 14  2  0
  9 15  1  0
 15 16  2  0
 16 17  1  0
 17 18  2  0
 18 19  1  0
 15 20  1  0
 19 20  2  0
  1 21  1  0
 21 22  2  0
 21 23  1  0
 23 24  2  0
 24 25  1  0
 26 25  1  6
 25 27  2  0
 27 28  1  0
 29 28  1  6
 27 30  1  0
 31 30  1  6
 23 32  1  0
 30 32  2  0
M  END
$$$$
