7MOI_HPS_A_501
     RDKit          3D

 18 18  0  0  0  0  0  0  0  0999 V2000
   23.8418   20.5043    4.9341 C   0  0  0  0  0  0  0  0  0  0  0  0
   24.3792   19.3477    4.3648 C   0  0  0  0  0  0  0  0  0  0  0  0
   23.6194   18.1766    4.3154 C   0  0  0  0  0  0  0  0  0  0  0  0
   22.3209   18.1588    4.8349 C   0  0  0  0  0  0  0  0  0  0  0  0
   21.7712   19.3225    5.4117 C   0  0  0  0  0  0  0  0  0  0  0  0
   22.5441   20.4907    5.4546 C   0  0  0  0  0  0  0  0  0  0  0  0
   20.4765   19.3690    5.9496 O   0  0  0  0  0  0  0  0  0  0  0  0
   19.4592   17.9976    6.1743 P   0  0  1  0  0  5  0  0  0  0  0  0
   19.0268   17.3595    4.6678 O   0  0  0  0  0  0  0  0  0  0  0  0
   20.2748   16.8221    7.0783 O   0  0  0  0  0  0  0  0  0  0  0  0
   18.2110   18.4214    6.9143 O   0  0  0  0  0  0  0  0  0  0  0  0
   24.4304   21.4118    4.9725 H   0  0  0  0  0  0  0  0  0  0  0  0
   25.3838   19.3589    3.9620 H   0  0  0  0  0  0  0  0  0  0  0  0
   24.0370   17.2809    3.8737 H   0  0  0  0  0  0  0  0  0  0  0  0
   21.7598   17.2373    4.7808 H   0  0  0  0  0  0  0  0  0  0  0  0
   22.1362   21.3922    5.8942 H   0  0  0  0  0  0  0  0  0  0  0  0
   18.0650   17.1396    4.7534 H   0  0  0  0  0  0  0  0  0  0  0  0
   20.5403   16.1346    6.4166 H   0  0  0  0  0  0  0  0  0  0  0  0
  1  2  2  0
  2  3  1  0
  3  4  2  0
  4  5  1  0
  1  6  1  0
  5  6  2  0
  5  7  1  0
  8  7  1  6
  8  9  1  0
  8 10  1  0
  8 11  2  0
  1 12  1  0
  2 13  1  0
  3 14  1  0
  4 15  1  0
  6 16  1  0
  9 17  1  0
 10 18  1  0
M  END
