8EAD_UY0_A_202
     RDKit          3D

 38 41  0  0  0  0  0  0  0  0999 V2000
   13.6209   -9.7298   -4.0969 C   0  0  0  0  0  0  0  0  0  0  0  0
   12.3260  -12.6991   -5.8424 C   0  0  0  0  0  0  0  0  0  0  0  0
   10.4257  -12.5878   -4.3938 C   0  0  0  0  0  0  0  0  0  0  0  0
    9.6442  -14.4630   -5.5716 C   0  0  0  0  0  0  0  0  0  0  0  0
   13.5977   -7.8913   -2.4904 C   0  0  0  0  0  0  0  0  0  0  0  0
   12.5895   -5.1016   -0.2088 C   0  0  0  0  0  0  0  0  0  0  0  0
   10.4867   -6.3989   -0.6170 C   0  0  0  0  0  0  0  0  0  0  0  0
    8.7367   -8.0468   -0.6957 C   0  0  0  0  0  0  0  0  0  0  0  0
   12.4483   -3.3671    1.6156 C   0  0  0  0  0  0  0  0  0  0  0  0
   13.1887   -4.1190    0.5627 C   0  0  0  0  0  0  0  0  0  0  0  0
   14.5440   -3.8295    0.3307 C   0  0  0  0  0  0  0  0  0  0  0  0
   14.6330   -5.4637   -1.3778 C   0  0  0  0  0  0  0  0  0  0  0  0
   14.7907   -7.3716   -3.0009 C   0  0  0  0  0  0  0  0  0  0  0  0
   15.3739   -8.0409   -4.0469 C   0  0  0  0  0  0  0  0  0  0  0  0
   14.7985   -9.2024   -4.5869 C   0  0  0  0  0  0  0  0  0  0  0  0
   13.4346  -11.8589   -5.3151 C   0  0  0  0  0  0  0  0  0  0  0  0
    9.1695  -13.4141   -4.5873 C   0  0  0  0  0  0  0  0  0  0  0  0
   11.0622  -14.6669   -5.1314 C   0  0  0  0  0  0  0  0  0  0  0  0
   13.0532   -9.0231   -3.0289 C   0  0  0  0  0  0  0  0  0  0  0  0
    9.4550   -7.0760   -0.0044 C   0  0  0  0  0  0  0  0  0  0  0  0
    9.0313   -8.3567   -1.9941 C   0  0  0  0  0  0  0  0  0  0  0  0
   10.0585   -7.6857   -2.6099 C   0  0  0  0  0  0  0  0  0  0  0  0
    9.4324   -5.6187   -5.3688 C   0  0  2  0  0  0  0  0  0  0  0  0
    8.4092   -6.5349   -6.0051 C   0  0  0  0  0  0  0  0  0  0  0  0
    8.8793   -5.0512   -4.0832 C   0  0  0  0  0  0  0  0  0  0  0  0
    9.8586   -4.4872   -6.2935 C   0  0  0  0  0  0  0  0  0  0  0  0
   10.7842   -6.7164   -1.9411 C   0  0  0  0  0  0  0  0  0  0  0  0
   15.2207   -4.5164   -0.6367 N   0  0  0  0  0  0  0  0  0  0  0  0
   15.3174   -6.2027   -2.3999 N   0  0  0  0  0  0  0  0  0  0  0  0
   11.5236  -13.3510   -4.8678 N   0  0  0  0  0  0  0  0  0  0  0  0
   13.3408   -5.7255   -1.1423 N   0  0  0  0  0  0  0  0  0  0  0  0
   11.2303   -5.4030    0.0571 N   0  0  0  0  0  0  0  0  0  0  0  0
   10.4146   -7.9297   -3.9692 N   0  0  0  0  0  0  0  0  0  0  0  0
   12.9709  -10.8277   -4.5248 O   0  0  0  0  0  0  0  0  0  0  0  0
   11.4873   -7.0966   -6.2707 O   0  0  0  0  0  0  0  0  0  0  0  0
   11.8898   -5.7484   -4.2590 O   0  0  0  0  0  0  0  0  0  0  0  0
   10.8882   -6.5853   -4.9762 S   0  0  1  0  0  6  0  0  0  0  0  0
    8.1395   -9.5753   -2.9004 Cl  0  0  0  0  0  0  0  0  0  0  0  0
  6 10  2  0
  9 10  1  6
 10 11  1  0
  5 13  2  0
 13 14  1  0
  1 15  1  0
 14 15  2  0
  2 16  1  0
  4 17  1  0
 17  3  1  6
  4 18  1  6
  1 19  2  0
  5 19  1  0
  7 20  1  0
  8 20  2  0
  8 21  1  0
 21 22  2  0
 23 24  1  6
 25 23  1  1
 26 23  1  6
 22 27  1  0
  7 27  2  0
 12 28  1  0
 11 28  2  0
 13 29  1  0
 12 29  1  0
  2 30  1  1
 18 30  1  6
  3 30  1  6
 12 31  2  0
  6 31  1  0
  7 32  1  0
  6 32  1  0
 22 33  1  0
 16 34  1  6
  1 34  1  0
 36 37  2  0
 23 37  1  0
 35 37  2  0
 37 33  1  1
 21 38  1  0
M  END
$$$$
