6WTN_RXT_A_1204
     RDKit          3D

 23 26  0  0  0  0  0  0  0  0999 V2000
   21.1645   16.7341    5.3960 C   0  0  0  0  0  0  0  0  0  0  0  0
   20.3669   17.9647    4.9480 C   0  0  0  0  0  0  0  0  0  0  0  0
   21.4285   19.0318    4.7268 C   0  0  0  0  0  0  0  0  0  0  0  0
   22.5193   18.7155    5.7380 C   0  0  0  0  0  0  0  0  0  0  0  0
   22.5326   17.2098    5.7507 C   0  0  1  0  0  0  0  0  0  0  0  0
   23.0865   16.6245    6.9971 C   0  0  1  0  0  0  0  0  0  0  0  0
   24.5737   16.8495    7.1004 C   0  0  0  0  0  0  0  0  0  0  0  0
   25.2576   16.3876    5.8942 C   0  0  0  0  0  0  0  0  0  0  0  0
   25.8008   16.0390    4.9417 N   0  0  0  0  0  0  0  0  0  0  0  0
   22.4847   17.1425    8.2023 N   0  0  0  0  0  0  0  0  0  0  0  0
   21.7985   16.3578    9.0650 C   0  0  0  0  0  0  0  0  0  0  0  0
   22.4594   18.3483    8.6932 N   0  0  0  0  0  0  0  0  0  0  0  0
   21.7818   18.4043    9.8541 C   0  0  0  0  0  0  0  0  0  0  0  0
   21.3496   17.1335   10.1089 C   0  0  0  0  0  0  0  0  0  0  0  0
   20.5629   16.7355   11.2846 C   0  0  0  0  0  0  0  0  0  0  0  0
   20.1472   17.6431   12.1877 N   0  0  0  0  0  0  0  0  0  0  0  0
   19.4268   17.2297   13.2523 C   0  0  0  0  0  0  0  0  0  0  0  0
   19.1001   15.9418   13.4575 N   0  0  0  0  0  0  0  0  0  0  0  0
   19.5076   15.0196   12.5640 C   0  0  0  0  0  0  0  0  0  0  0  0
   20.2461   15.4007   11.4622 C   0  0  0  0  0  0  0  0  0  0  0  0
   20.4949   14.2322   10.7640 C   0  0  0  0  0  0  0  0  0  0  0  0
   19.9147   13.1755   11.4389 C   0  0  0  0  0  0  0  0  0  0  0  0
   19.3199   13.6709   12.5287 N   0  0  0  0  0  0  0  0  0  0  0  0
  1  2  1  0
  2  3  1  0
  3  4  1  0
  5  4  1  1
  1  5  1  0
  5  6  1  0
  6  7  1  1
  7  8  1  0
  8  9  3  0
  6 10  1  0
 10 11  1  0
 10 12  1  0
 12 13  2  0
 13 14  1  0
 11 14  2  0
 14 15  1  0
 15 16  2  0
 16 17  1  0
 17 18  2  0
 18 19  1  0
 15 20  1  0
 19 20  2  0
 20 21  1  0
 21 22  2  0
 19 23  1  0
 22 23  1  0
M  END
$$$$
