1G9V_RQ3_A_801
     RDKit          3D

 25 26  0  0  0  0  0  0  0  0999 V2000
  -18.9311   23.2129   30.5544 C   0  0  0  0  0  0  0  0  0  0  0  0
  -19.6065   24.4312   30.7236 O   0  0  0  0  0  0  0  0  0  0  0  0
  -19.2439   22.5482   29.5547 O   0  0  0  0  0  0  0  0  0  0  0  0
  -17.9351   22.8694   31.5791 C   0  0  2  0  0  0  0  0  0  0  0  0
  -18.6165   22.7443   32.9626 C   0  0  0  0  0  0  0  0  0  0  0  0
  -16.8879   23.9992   31.6698 C   0  0  0  0  0  0  0  0  0  0  0  0
  -17.2469   21.6889   31.3944 O   0  0  0  0  0  0  0  0  0  0  0  0
  -16.4449   21.1021   32.3075 C   0  0  0  0  0  0  0  0  0  0  0  0
  -15.8238   21.9352   33.2523 C   0  0  0  0  0  0  0  0  0  0  0  0
  -14.9950   21.4621   34.2240 C   0  0  0  0  0  0  0  0  0  0  0  0
  -14.7204   20.1276   34.3312 C   0  0  0  0  0  0  0  0  0  0  0  0
  -16.1593   19.7650   32.4293 C   0  0  0  0  0  0  0  0  0  0  0  0
  -15.3125   19.2759   33.4207 C   0  0  0  0  0  0  0  0  0  0  0  0
  -13.8390   19.5216   35.3500 C   0  0  0  0  0  0  0  0  0  0  0  0
  -12.4564   19.4311   34.8513 C   0  0  0  0  0  0  0  0  0  0  0  0
  -12.2147   19.8169   33.6560 O   0  0  0  0  0  0  0  0  0  0  0  0
  -11.3773   18.9270   35.6566 N   0  0  0  0  0  0  0  0  0  0  0  0
  -10.1018   18.8637   35.0337 C   0  0  0  0  0  0  0  0  0  0  0  0
   -9.3652   17.7057   34.9136 C   0  0  0  0  0  0  0  0  0  0  0  0
   -8.1361   17.6940   34.3067 C   0  0  0  0  0  0  0  0  0  0  0  0
   -7.5767   18.8636   33.7826 C   0  0  0  0  0  0  0  0  0  0  0  0
   -9.5632   20.0313   34.5200 C   0  0  0  0  0  0  0  0  0  0  0  0
   -8.3126   20.0383   33.8992 C   0  0  0  0  0  0  0  0  0  0  0  0
   -7.3178   16.4361   34.1644 C   0  0  0  0  0  0  0  0  0  0  0  0
   -7.7244   21.2914   33.3483 C   0  0  0  0  0  0  0  0  0  0  0  0
  1  2  1  0
  1  3  2  0
  1  4  1  0
  4  5  1  1
  4  6  1  0
  4  7  1  0
  7  8  1  0
  8  9  2  0
  9 10  1  0
 10 11  2  0
  8 12  1  0
 11 13  1  0
 12 13  2  0
 11 14  1  0
 14 15  1  0
 15 16  2  0
 15 17  1  0
 17 18  1  0
 18 19  2  0
 19 20  1  0
 20 21  2  0
 18 22  1  0
 21 23  1  0
 22 23  2  0
 20 24  1  0
 23 25  1  0
M  END
$$$$
