1G9V_RQ3_A_801
     RDKit          3D

 25 26  0  0  0  0  0  0  0  0999 V2000
   14.6328   15.6698   40.8440 C   0  0  0  0  0  0  0  0  0  0  0  0
   15.5133   16.1115   39.8447 O   0  0  0  0  0  0  0  0  0  0  0  0
   14.5413   16.3900   41.8500 O   0  0  0  0  0  0  0  0  0  0  0  0
   13.9244   14.4091   40.5811 C   0  0  2  0  0  0  0  0  0  0  0  0
   14.9405   13.2761   40.3019 C   0  0  0  0  0  0  0  0  0  0  0  0
   13.0438   14.5728   39.3245 C   0  0  0  0  0  0  0  0  0  0  0  0
   13.1112   13.9402   41.5911 O   0  0  0  0  0  0  0  0  0  0  0  0
   12.3843   12.8042   41.5436 C   0  0  0  0  0  0  0  0  0  0  0  0
   11.5368   12.5335   42.6304 C   0  0  0  0  0  0  0  0  0  0  0  0
   10.7526   11.4220   42.6979 C   0  0  0  0  0  0  0  0  0  0  0  0
   10.7505   10.4960   41.6927 C   0  0  0  0  0  0  0  0  0  0  0  0
   12.3698   11.8650   40.5426 C   0  0  0  0  0  0  0  0  0  0  0  0
   11.5702   10.7267   40.6066 C   0  0  0  0  0  0  0  0  0  0  0  0
    9.9350    9.2645   41.6750 C   0  0  0  0  0  0  0  0  0  0  0  0
   10.3558    8.3490   42.7488 C   0  0  0  0  0  0  0  0  0  0  0  0
   11.2813    8.7303   43.5450 O   0  0  0  0  0  0  0  0  0  0  0  0
    9.7660    7.0504   42.9307 N   0  0  0  0  0  0  0  0  0  0  0  0
   10.2941    6.2603   43.9870 C   0  0  0  0  0  0  0  0  0  0  0  0
    9.7827    5.0355   44.3562 C   0  0  0  0  0  0  0  0  0  0  0  0
   10.3242    4.3099   45.3856 C   0  0  0  0  0  0  0  0  0  0  0  0
   11.4233    4.7866   46.1070 C   0  0  0  0  0  0  0  0  0  0  0  0
   11.3827    6.7475   44.6905 C   0  0  0  0  0  0  0  0  0  0  0  0
   11.9468    6.0226   45.7420 C   0  0  0  0  0  0  0  0  0  0  0  0
    9.7793    2.9674   45.8012 C   0  0  0  0  0  0  0  0  0  0  0  0
   13.1150    6.5424   46.5068 C   0  0  0  0  0  0  0  0  0  0  0  0
  1  2  1  0
  1  3  2  0
  1  4  1  0
  4  5  1  6
  4  6  1  0
  4  7  1  0
  7  8  1  0
  8  9  2  0
  9 10  1  0
 10 11  2  0
  8 12  1  0
 11 13  1  0
 12 13  2  0
 11 14  1  0
 14 15  1  0
 15 16  2  0
 15 17  1  0
 17 18  1  0
 18 19  2  0
 19 20  1  0
 20 21  2  0
 18 22  1  0
 21 23  1  0
 22 23  2  0
 20 24  1  0
 23 25  1  0
M  END
$$$$
