1G9V_RQ3_A_801
     RDKit          3D

 25 26  0  0  0  0  0  0  0  0999 V2000
    5.1784   17.8330   53.6745 C   0  0  0  0  0  0  0  0  0  0  0  0
    5.3105   16.7578   54.5664 O   0  0  0  0  0  0  0  0  0  0  0  0
    5.5559   17.6278   52.5106 O   0  0  0  0  0  0  0  0  0  0  0  0
    4.6097   19.0721   54.2233 C   0  0  2  0  0  0  0  0  0  0  0  0
    5.3436   19.4619   55.5285 C   0  0  0  0  0  0  0  0  0  0  0  0
    3.1237   18.8405   54.5690 C   0  0  0  0  0  0  0  0  0  0  0  0
    4.6715   20.1867   53.4137 O   0  0  0  0  0  0  0  0  0  0  0  0
    4.2720   21.4276   53.7627 C   0  0  0  0  0  0  0  0  0  0  0  0
    5.1052   22.1551   54.6282 C   0  0  0  0  0  0  0  0  0  0  0  0
    4.8122   23.4165   55.0502 C   0  0  0  0  0  0  0  0  0  0  0  0
    3.6710   24.0504   54.6453 C   0  0  0  0  0  0  0  0  0  0  0  0
    3.1308   22.0785   53.3650 C   0  0  0  0  0  0  0  0  0  0  0  0
    2.8262   23.3680   53.7936 C   0  0  0  0  0  0  0  0  0  0  0  0
    3.2700   25.4144   55.0462 C   0  0  0  0  0  0  0  0  0  0  0  0
    3.1936   26.2984   53.8711 C   0  0  0  0  0  0  0  0  0  0  0  0
    4.2852   26.7273   53.3609 O   0  0  0  0  0  0  0  0  0  0  0  0
    1.9425   26.6930   53.2826 N   0  0  0  0  0  0  0  0  0  0  0  0
    2.0208   27.5205   52.1303 C   0  0  0  0  0  0  0  0  0  0  0  0
    1.6360   27.1169   50.8705 C   0  0  0  0  0  0  0  0  0  0  0  0
    1.7333   27.9504   49.7865 C   0  0  0  0  0  0  0  0  0  0  0  0
    2.2304   29.2510   49.9161 C   0  0  0  0  0  0  0  0  0  0  0  0
    2.5153   28.8055   52.2769 C   0  0  0  0  0  0  0  0  0  0  0  0
    2.6220   29.6679   51.1841 C   0  0  0  0  0  0  0  0  0  0  0  0
    1.3146   27.5265   48.4018 C   0  0  0  0  0  0  0  0  0  0  0  0
    3.1575   31.0503   51.3331 C   0  0  0  0  0  0  0  0  0  0  0  0
  1  2  1  0
  1  3  2  0
  1  4  1  0
  4  5  1  1
  4  6  1  0
  4  7  1  0
  7  8  1  0
  8  9  2  0
  9 10  1  0
 10 11  2  0
  8 12  1  0
 11 13  1  0
 12 13  2  0
 11 14  1  0
 14 15  1  0
 15 16  2  0
 15 17  1  0
 17 18  1  0
 18 19  2  0
 19 20  1  0
 20 21  2  0
 18 22  1  0
 21 23  1  0
 22 23  2  0
 20 24  1  0
 23 25  1  0
M  END
$$$$
