1G9V_RQ3_A_801
     RDKit          3D

 25 26  0  0  0  0  0  0  0  0999 V2000
    2.5219   26.2042   54.2742 C   0  0  0  0  0  0  0  0  0  0  0  0
    2.3963   27.6013   54.2366 O   0  0  0  0  0  0  0  0  0  0  0  0
    2.4205   25.6163   53.1863 O   0  0  0  0  0  0  0  0  0  0  0  0
    2.7582   25.6040   55.5947 C   0  0  2  0  0  0  0  0  0  0  0  0
    1.5706   25.9095   56.5383 C   0  0  0  0  0  0  0  0  0  0  0  0
    4.0264   26.2255   56.2165 C   0  0  0  0  0  0  0  0  0  0  0  0
    2.9171   24.2346   55.6267 O   0  0  0  0  0  0  0  0  0  0  0  0
    3.1756   23.5047   56.7319 C   0  0  0  0  0  0  0  0  0  0  0  0
    3.0296   24.1412   57.9754 C   0  0  0  0  0  0  0  0  0  0  0  0
    3.2591   23.5105   59.1605 C   0  0  0  0  0  0  0  0  0  0  0  0
    3.6505   22.2016   59.2009 C   0  0  0  0  0  0  0  0  0  0  0  0
    3.5684   22.1907   56.7900 C   0  0  0  0  0  0  0  0  0  0  0  0
    3.8046   21.5411   57.9989 C   0  0  0  0  0  0  0  0  0  0  0  0
    3.9198   21.4340   60.4339 C   0  0  0  0  0  0  0  0  0  0  0  0
    5.2388   21.7860   60.9857 C   0  0  0  0  0  0  0  0  0  0  0  0
    5.8559   22.7916   60.4916 O   0  0  0  0  0  0  0  0  0  0  0  0
    5.8520   21.0427   62.0528 N   0  0  0  0  0  0  0  0  0  0  0  0
    7.0744   21.5596   62.5600 C   0  0  0  0  0  0  0  0  0  0  0  0
    7.9237   22.3667   61.8352 C   0  0  0  0  0  0  0  0  0  0  0  0
    9.0958   22.8392   62.3664 C   0  0  0  0  0  0  0  0  0  0  0  0
    9.4794   22.5189   63.6724 C   0  0  0  0  0  0  0  0  0  0  0  0
    7.4385   21.2325   63.8553 C   0  0  0  0  0  0  0  0  0  0  0  0
    8.6287   21.7041   64.4124 C   0  0  0  0  0  0  0  0  0  0  0  0
   10.0353   23.7252   61.5888 C   0  0  0  0  0  0  0  0  0  0  0  0
    9.0296   21.3526   65.8037 C   0  0  0  0  0  0  0  0  0  0  0  0
  1  2  1  0
  1  3  2  0
  1  4  1  0
  4  5  1  1
  4  6  1  0
  4  7  1  0
  7  8  1  0
  8  9  2  0
  9 10  1  0
 10 11  2  0
  8 12  1  0
 11 13  1  0
 12 13  2  0
 11 14  1  0
 14 15  1  0
 15 16  2  0
 15 17  1  0
 17 18  1  0
 18 19  2  0
 19 20  1  0
 20 21  2  0
 18 22  1  0
 21 23  1  0
 22 23  2  0
 20 24  1  0
 23 25  1  0
M  END
$$$$
