1G9V_RQ3_A_801
     RDKit          3D

 25 26  0  0  0  0  0  0  0  0999 V2000
   -1.4105    6.0193   16.8096 C   0  0  0  0  0  0  0  0  0  0  0  0
   -0.1008    6.2004   16.3396 O   0  0  0  0  0  0  0  0  0  0  0  0
   -2.0283    5.0479   16.3470 O   0  0  0  0  0  0  0  0  0  0  0  0
   -1.8942    6.9994   17.7921 C   0  0  2  0  0  0  0  0  0  0  0  0
   -2.1968    8.3471   17.0947 C   0  0  0  0  0  0  0  0  0  0  0  0
   -0.7942    7.2499   18.8449 C   0  0  0  0  0  0  0  0  0  0  0  0
   -3.0448    6.6666   18.4752 O   0  0  0  0  0  0  0  0  0  0  0  0
   -3.1852    5.6048   19.2963 C   0  0  0  0  0  0  0  0  0  0  0  0
   -4.3487    5.5441   20.0808 C   0  0  0  0  0  0  0  0  0  0  0  0
   -4.6055    4.5233   20.9451 C   0  0  0  0  0  0  0  0  0  0  0  0
   -3.7277    3.4866   21.0959 C   0  0  0  0  0  0  0  0  0  0  0  0
   -2.3147    4.5560   19.4591 C   0  0  0  0  0  0  0  0  0  0  0  0
   -2.5722    3.5100   20.3415 C   0  0  0  0  0  0  0  0  0  0  0  0
   -3.9197    2.3372   22.0035 C   0  0  0  0  0  0  0  0  0  0  0  0
   -3.6540    2.7282   23.3981 C   0  0  0  0  0  0  0  0  0  0  0  0
   -2.6972    3.5451   23.6288 O   0  0  0  0  0  0  0  0  0  0  0  0
   -4.4279    2.2260   24.5009 N   0  0  0  0  0  0  0  0  0  0  0  0
   -3.9472    2.5361   25.8015 C   0  0  0  0  0  0  0  0  0  0  0  0
   -3.9402    1.6408   26.8486 C   0  0  0  0  0  0  0  0  0  0  0  0
   -3.4690    1.9868   28.0886 C   0  0  0  0  0  0  0  0  0  0  0  0
   -2.9741    3.2699   28.3424 C   0  0  0  0  0  0  0  0  0  0  0  0
   -3.4605    3.8112   26.0351 C   0  0  0  0  0  0  0  0  0  0  0  0
   -2.9772    4.1814   27.2916 C   0  0  0  0  0  0  0  0  0  0  0  0
   -3.4515    1.0195   29.2446 C   0  0  0  0  0  0  0  0  0  0  0  0
   -2.4565    5.5528   27.5519 C   0  0  0  0  0  0  0  0  0  0  0  0
  1  2  1  0
  1  3  2  0
  1  4  1  0
  4  5  1  6
  4  6  1  0
  4  7  1  0
  7  8  1  0
  8  9  2  0
  9 10  1  0
 10 11  2  0
  8 12  1  0
 11 13  1  0
 12 13  2  0
 11 14  1  0
 14 15  1  0
 15 16  2  0
 15 17  1  0
 17 18  1  0
 18 19  2  0
 19 20  1  0
 20 21  2  0
 18 22  1  0
 21 23  1  0
 22 23  2  0
 20 24  1  0
 23 25  1  0
M  END
$$$$
