1G9V_RQ3_A_801
     RDKit          3D

 25 26  0  0  0  0  0  0  0  0999 V2000
   10.4542   18.8984   63.4795 C   0  0  0  0  0  0  0  0  0  0  0  0
   11.3598   19.3721   64.4411 O   0  0  0  0  0  0  0  0  0  0  0  0
   10.6399   17.7395   63.0773 O   0  0  0  0  0  0  0  0  0  0  0  0
    9.3953   19.8289   63.0637 C   0  0  2  0  0  0  0  0  0  0  0  0
   10.0196   21.1247   62.4932 C   0  0  0  0  0  0  0  0  0  0  0  0
    8.5466   20.2160   64.2929 C   0  0  0  0  0  0  0  0  0  0  0  0
    8.5262   19.3755   62.0940 O   0  0  0  0  0  0  0  0  0  0  0  0
    7.4493   20.0473   61.6356 C   0  0  0  0  0  0  0  0  0  0  0  0
    7.3188   21.3938   62.0132 C   0  0  0  0  0  0  0  0  0  0  0  0
    6.2784   22.1765   61.6135 C   0  0  0  0  0  0  0  0  0  0  0  0
    5.2898   21.6824   60.8095 C   0  0  0  0  0  0  0  0  0  0  0  0
    6.4488   19.5668   60.8278 C   0  0  0  0  0  0  0  0  0  0  0  0
    5.3827   20.3626   60.4164 C   0  0  0  0  0  0  0  0  0  0  0  0
    4.1267   22.4525   60.3236 C   0  0  0  0  0  0  0  0  0  0  0  0
    4.0508   22.4043   58.8538 C   0  0  0  0  0  0  0  0  0  0  0  0
    4.8993   21.6833   58.2245 O   0  0  0  0  0  0  0  0  0  0  0  0
    3.0626   23.1353   58.1080 N   0  0  0  0  0  0  0  0  0  0  0  0
    3.1199   23.0103   56.6938 C   0  0  0  0  0  0  0  0  0  0  0  0
    3.4471   24.0460   55.8464 C   0  0  0  0  0  0  0  0  0  0  0  0
    3.4861   23.8785   54.4863 C   0  0  0  0  0  0  0  0  0  0  0  0
    3.1932   22.6428   53.9008 C   0  0  0  0  0  0  0  0  0  0  0  0
    2.8271   21.7795   56.1311 C   0  0  0  0  0  0  0  0  0  0  0  0
    2.8613   21.5907   54.7481 C   0  0  0  0  0  0  0  0  0  0  0  0
    3.8445   24.9996   53.5446 C   0  0  0  0  0  0  0  0  0  0  0  0
    2.5429   20.2707   54.1349 C   0  0  0  0  0  0  0  0  0  0  0  0
  1  2  1  0
  1  3  2  0
  1  4  1  0
  4  5  1  6
  4  6  1  0
  4  7  1  0
  7  8  1  0
  8  9  2  0
  9 10  1  0
 10 11  2  0
  8 12  1  0
 11 13  1  0
 12 13  2  0
 11 14  1  0
 14 15  1  0
 15 16  2  0
 15 17  1  0
 17 18  1  0
 18 19  2  0
 19 20  1  0
 20 21  2  0
 18 22  1  0
 21 23  1  0
 22 23  2  0
 20 24  1  0
 23 25  1  0
M  END
$$$$
