1G9V_RQ3_A_801
     RDKit          3D

 25 26  0  0  0  0  0  0  0  0999 V2000
   19.7920    3.1309   65.1773 C   0  0  0  0  0  0  0  0  0  0  0  0
   18.7691    2.8180   66.0855 O   0  0  0  0  0  0  0  0  0  0  0  0
   20.8726    3.4871   65.6718 O   0  0  0  0  0  0  0  0  0  0  0  0
   19.4629    2.9997   63.7509 C   0  0  2  0  0  0  0  0  0  0  0  0
   18.4152    4.0641   63.3465 C   0  0  0  0  0  0  0  0  0  0  0  0
   18.8443    1.6089   63.4973 C   0  0  0  0  0  0  0  0  0  0  0  0
   20.5080    3.1495   62.8640 O   0  0  0  0  0  0  0  0  0  0  0  0
   20.3938    3.1679   61.5194 C   0  0  0  0  0  0  0  0  0  0  0  0
   20.8293    2.0315   60.8183 C   0  0  0  0  0  0  0  0  0  0  0  0
   20.7639    1.9293   59.4617 C   0  0  0  0  0  0  0  0  0  0  0  0
   20.2618    2.9465   58.6993 C   0  0  0  0  0  0  0  0  0  0  0  0
   19.8918    4.1798   60.7393 C   0  0  0  0  0  0  0  0  0  0  0  0
   19.8229    4.0806   59.3520 C   0  0  0  0  0  0  0  0  0  0  0  0
   20.1484    2.9270   57.2267 C   0  0  0  0  0  0  0  0  0  0  0  0
   20.3156    1.5575   56.7122 C   0  0  0  0  0  0  0  0  0  0  0  0
   21.2025    0.8096   57.2509 O   0  0  0  0  0  0  0  0  0  0  0  0
   19.5218    1.0367   55.6325 N   0  0  0  0  0  0  0  0  0  0  0  0
   19.9281   -0.2155   55.0980 C   0  0  0  0  0  0  0  0  0  0  0  0
   20.5337   -0.3633   53.8694 C   0  0  0  0  0  0  0  0  0  0  0  0
   20.9055   -1.5939   53.3934 C   0  0  0  0  0  0  0  0  0  0  0  0
   20.6834   -2.7556   54.1394 C   0  0  0  0  0  0  0  0  0  0  0  0
   19.7007   -1.3555   55.8503 C   0  0  0  0  0  0  0  0  0  0  0  0
   20.0722   -2.6170   55.3812 C   0  0  0  0  0  0  0  0  0  0  0  0
   21.5713   -1.7736   52.0530 C   0  0  0  0  0  0  0  0  0  0  0  0
   19.8265   -3.8486   56.1828 C   0  0  0  0  0  0  0  0  0  0  0  0
  1  2  1  0
  1  3  2  0
  1  4  1  0
  4  5  1  6
  4  6  1  0
  4  7  1  0
  7  8  1  0
  8  9  2  0
  9 10  1  0
 10 11  2  0
  8 12  1  0
 11 13  1  0
 12 13  2  0
 11 14  1  0
 14 15  1  0
 15 16  2  0
 15 17  1  0
 17 18  1  0
 18 19  2  0
 19 20  1  0
 20 21  2  0
 18 22  1  0
 21 23  1  0
 22 23  2  0
 20 24  1  0
 23 25  1  0
M  END
$$$$
