1G9V_RQ3_A_801
     RDKit          3D

 25 26  0  0  0  0  0  0  0  0999 V2000
   15.3202    0.5772   35.5986 C   0  0  0  0  0  0  0  0  0  0  0  0
   15.2433   -0.7213   36.1251 O   0  0  0  0  0  0  0  0  0  0  0  0
   16.1557    0.7541   34.6987 O   0  0  0  0  0  0  0  0  0  0  0  0
   14.4037    1.5717   36.1741 C   0  0  2  0  0  0  0  0  0  0  0  0
   14.8347    1.9190   37.6189 C   0  0  0  0  0  0  0  0  0  0  0  0
   12.9813    0.9766   36.2365 C   0  0  0  0  0  0  0  0  0  0  0  0
   14.3129    2.7777   35.5119 O   0  0  0  0  0  0  0  0  0  0  0  0
   13.5613    3.8281   35.9032 C   0  0  0  0  0  0  0  0  0  0  0  0
   12.9160    3.7331   37.1471 C   0  0  0  0  0  0  0  0  0  0  0  0
   12.1327    4.7264   37.6517 C   0  0  0  0  0  0  0  0  0  0  0  0
   11.9310    5.8880   36.9604 C   0  0  0  0  0  0  0  0  0  0  0  0
   13.3490    5.0009   35.2222 C   0  0  0  0  0  0  0  0  0  0  0  0
   12.5490    6.0196   35.7334 C   0  0  0  0  0  0  0  0  0  0  0  0
   11.1031    7.0196   37.4256 C   0  0  0  0  0  0  0  0  0  0  0  0
   11.9535    8.1500   37.8346 C   0  0  0  0  0  0  0  0  0  0  0  0
   13.2112    7.9519   37.9561 O   0  0  0  0  0  0  0  0  0  0  0  0
   11.4214    9.4590   38.1005 N   0  0  0  0  0  0  0  0  0  0  0  0
   12.3293   10.4121   38.6353 C   0  0  0  0  0  0  0  0  0  0  0  0
   12.0864   11.1441   39.7768 C   0  0  0  0  0  0  0  0  0  0  0  0
   12.9921   12.0561   40.2536 C   0  0  0  0  0  0  0  0  0  0  0  0
   14.2056   12.2821   39.5965 C   0  0  0  0  0  0  0  0  0  0  0  0
   13.5263   10.6229   37.9720 C   0  0  0  0  0  0  0  0  0  0  0  0
   14.4602   11.5480   38.4426 C   0  0  0  0  0  0  0  0  0  0  0  0
   12.7440   12.8636   41.5020 C   0  0  0  0  0  0  0  0  0  0  0  0
   15.7481   11.7839   37.7317 C   0  0  0  0  0  0  0  0  0  0  0  0
  1  2  1  0
  1  3  2  0
  1  4  1  0
  4  5  1  1
  4  6  1  0
  4  7  1  0
  7  8  1  0
  8  9  2  0
  9 10  1  0
 10 11  2  0
  8 12  1  0
 11 13  1  0
 12 13  2  0
 11 14  1  0
 14 15  1  0
 15 16  2  0
 15 17  1  0
 17 18  1  0
 18 19  2  0
 19 20  1  0
 20 21  2  0
 18 22  1  0
 21 23  1  0
 22 23  2  0
 20 24  1  0
 23 25  1  0
M  END
$$$$
