1OF6_DTY_A_1370
     RDKit          3D

 13 13  0  0  0  0  0  0  0  0999 V2000
   93.3920   64.0922   72.7307 N   0  0  0  0  0  0  0  0  0  0  0  0
   92.5609   62.8761   72.7561 C   0  0  2  0  0  0  0  0  0  0  0  0
   91.7988   62.8426   71.4819 C   0  0  0  0  0  0  0  0  0  0  0  0
   91.6285   63.8614   70.7532 O   0  0  0  0  0  0  0  0  0  0  0  0
   91.6623   63.0232   73.9305 C   0  0  0  0  0  0  0  0  0  0  0  0
   92.2515   62.8505   75.2481 C   0  0  0  0  0  0  0  0  0  0  0  0
   93.2333   61.8968   75.4226 C   0  0  0  0  0  0  0  0  0  0  0  0
   91.8824   63.5941   76.3497 C   0  0  0  0  0  0  0  0  0  0  0  0
   93.8447   61.6733   76.6537 C   0  0  0  0  0  0  0  0  0  0  0  0
   92.4769   63.3920   77.5933 C   0  0  0  0  0  0  0  0  0  0  0  0
   93.4591   62.4352   77.7598 C   0  0  0  0  0  0  0  0  0  0  0  0
   94.0649   62.2206   79.0009 O   0  0  0  0  0  0  0  0  0  0  0  0
   91.2107   61.6616   70.9985 O   0  0  0  0  0  0  0  0  0  0  0  0
  2  1  1  6
  2  3  1  0
  3  4  2  0
  2  5  1  0
  5  6  1  0
  6  7  2  0
  6  8  1  0
  7  9  1  0
  8 10  2  0
  9 11  2  0
 10 11  1  0
 11 12  1  0
  3 13  1  0
M  END
$$$$
