1Q1G_MTI_D_304
     RDKit          3D

 20 22  0  0  0  0  0  0  0  0999 V2000
   36.3670   16.8005   90.3657 C   0  0  0  0  0  0  0  0  0  0  0  0
   34.6303   17.0542   90.7228 S   0  0  0  0  0  0  0  0  0  0  0  0
   33.8675   15.7089   89.7627 C   0  0  0  0  0  0  0  0  0  0  0  0
   32.4361   15.3842   90.1950 C   0  0  1  0  0  0  0  0  0  0  0  0
   31.8558   14.4560   89.2164 N   0  0  0  0  0  0  0  0  0  0  0  0
   32.1887   13.1735   91.2090 C   0  0  2  0  0  0  0  0  0  0  0  0
   31.1399   12.5411   92.0268 O   0  0  0  0  0  0  0  0  0  0  0  0
   32.3499   14.7183   91.5788 C   0  0  2  0  0  0  0  0  0  0  0  0
   31.1513   15.2172   92.3017 O   0  0  0  0  0  0  0  0  0  0  0  0
   31.8656   13.0681   89.6732 C   0  0  2  0  0  0  0  0  0  0  0  0
   32.8968   12.3121   88.7815 C   0  0  0  0  0  0  0  0  0  0  0  0
   32.7432   12.1003   87.4108 C   0  0  0  0  0  0  0  0  0  0  0  0
   33.7230   11.4530   86.8266 N   0  0  0  0  0  0  0  0  0  0  0  0
   34.6298   11.1910   87.8465 C   0  0  0  0  0  0  0  0  0  0  0  0
   35.9023   10.5031   87.8053 C   0  0  0  0  0  0  0  0  0  0  0  0
   36.4352   10.0061   86.8132 O   0  0  0  0  0  0  0  0  0  0  0  0
   36.5666   10.4221   89.0709 N   0  0  0  0  0  0  0  0  0  0  0  0
   36.0562   10.9545   90.2763 C   0  0  0  0  0  0  0  0  0  0  0  0
   34.8406   11.6141   90.3173 N   0  0  0  0  0  0  0  0  0  0  0  0
   34.1610   11.7058   89.0735 C   0  0  0  0  0  0  0  0  0  0  0  0
  1  2  1  0
  2  3  1  0
  4  3  1  6
  4  5  1  0
  6  7  1  1
  4  8  1  0
  6  8  1  0
  8  9  1  6
  5 10  1  0
  6 10  1  0
 10 11  1  6
 11 12  2  0
 12 13  1  0
 13 14  1  0
 14 15  1  0
 15 16  2  0
 15 17  1  0
 17 18  1  0
 18 19  2  0
 11 20  1  0
 14 20  2  0
 19 20  1  0
M  CHG  1   5   1
M  END
