7TWC_CXS_A_501
     RDKit          3D

 14 14  0  0  0  0  0  0  0  0999 V2000
   12.2880    2.4978   10.1054 S   0  0  2  0  0  0  0  0  0  0  0  0
   12.8110    1.3636    9.3619 O   0  0  0  0  0  0  0  0  0  0  0  0
   12.6782    2.5249   11.4797 O   0  0  0  0  0  0  0  0  0  0  0  0
   10.6744    2.4886    9.9913 O   0  0  0  0  0  0  0  0  0  0  0  0
   12.8130    3.8952    9.3448 C   0  0  0  0  0  0  0  0  0  0  0  0
   12.1241    5.1132    9.9702 C   0  0  0  0  0  0  0  0  0  0  0  0
   11.5131    4.8071   11.3370 C   0  0  0  0  0  0  0  0  0  0  0  0
   10.0422    4.7829   11.2479 N   0  0  0  0  0  0  0  0  0  0  0  0
    9.3719    5.5793   12.3067 C   0  0  1  0  0  0  0  0  0  0  0  0
    7.9542    5.9142   11.8748 C   0  0  0  0  0  0  0  0  0  0  0  0
    6.9708    6.0574   13.0442 C   0  0  0  0  0  0  0  0  0  0  0  0
    7.6380    6.5650   14.3148 C   0  0  0  0  0  0  0  0  0  0  0  0
    8.6668    5.5606   14.7817 C   0  0  0  0  0  0  0  0  0  0  0  0
    9.3594    4.8341   13.6283 C   0  0  0  0  0  0  0  0  0  0  0  0
  1  2  2  0
  1  3  2  0
  1  4  1  1
  1  5  1  0
  5  6  1  0
  6  7  1  0
  7  8  1  0
  9  8  1  6
  9 10  1  0
 10 11  1  0
 11 12  1  0
 12 13  1  0
  9 14  1  0
 13 14  1  0
M  END
