1OF6_DTY_A_1370
     RDKit          3D

 24 24  0  0  0  0  0  0  0  0999 V2000
   49.7292   29.8163   63.5154 N   0  0  0  0  0  0  0  0  0  0  0  0
   48.6617   30.3775   62.6845 C   0  0  2  0  0  0  0  0  0  0  0  0
   47.9871   29.2748   61.9167 C   0  0  0  0  0  0  0  0  0  0  0  0
   46.9748   28.6930   62.3927 O   0  0  0  0  0  0  0  0  0  0  0  0
   49.2122   31.4649   61.7374 C   0  0  2  0  0  0  0  0  0  0  0  0
   50.6786   31.2613   61.4489 C   0  0  0  0  0  0  0  0  0  0  0  0
   51.0992   30.2289   60.5941 C   0  0  0  0  0  0  0  0  0  0  0  0
   51.6340   32.1338   61.9955 C   0  0  0  0  0  0  0  0  0  0  0  0
   52.4569   30.0632   60.3038 C   0  0  0  0  0  0  0  0  0  0  0  0
   52.9910   31.9657   61.7040 C   0  0  0  0  0  0  0  0  0  0  0  0
   53.4058   30.9286   60.8573 C   0  0  0  0  0  0  0  0  0  0  0  0
   54.7550   30.7518   60.5591 O   0  0  0  0  0  0  0  0  0  0  0  0
   48.5029   28.8728   60.6885 O   0  0  0  0  0  0  0  0  0  0  0  0
   50.5588   30.4543   63.4977 H   0  0  0  0  0  0  0  0  0  0  0  0
   49.3939   29.7728   64.5054 H   0  0  0  0  0  0  0  0  0  0  0  0
   47.9087   30.8419   63.3605 H   0  0  0  0  0  0  0  0  0  0  0  0
   49.0421   32.4739   62.1745 H   0  0  0  0  0  0  0  0  0  0  0  0
   48.6506   31.4349   60.7779 H   0  0  0  0  0  0  0  0  0  0  0  0
   50.3764   29.5557   60.1502 H   0  0  0  0  0  0  0  0  0  0  0  0
   51.3266   32.9443   62.6447 H   0  0  0  0  0  0  0  0  0  0  0  0
   52.7714   29.2635   59.6455 H   0  0  0  0  0  0  0  0  0  0  0  0
   53.7181   32.6430   62.1335 H   0  0  0  0  0  0  0  0  0  0  0  0
   55.4408   31.4695   60.7631 H   0  0  0  0  0  0  0  0  0  0  0  0
   48.1173   29.2281   59.8218 H   0  0  0  0  0  0  0  0  0  0  0  0
  2  1  1  0
  2  3  1  0
  3  4  2  0
  2  5  1  0
  5  6  1  0
  6  7  2  0
  6  8  1  0
  7  9  1  0
  8 10  2  0
  9 11  2  0
 10 11  1  0
 11 12  1  0
  3 13  1  0
  1 14  1  0
  1 15  1  0
  2 16  1  1
  5 17  1  1
  5 18  1  0
  7 19  1  0
  8 20  1  0
  9 21  1  0
 10 22  1  0
 12 23  1  0
 13 24  1  0
M  END
