@<TRIPOS>MOLECULE
1NAV_IH5_A_600
 39 40 0 0 0
SMALL
GASTEIGER

@<TRIPOS>ATOM
      1 O          44.6210   13.4550   17.6070 O.3     1  UNL1       -0.4804
      2 C          43.8740   14.4540   18.1410 C.2     1  UNL1        0.3091
      3 O          42.7640   14.8300   17.7390 O.2     1  UNL1       -0.2507
      4 C          44.4900   15.0760   19.3010 C.3     1  UNL1        0.0700
      5 C          45.7960   15.7930   19.2060 C.ar    1  UNL1       -0.0338
      6 C          46.7550   15.4270   20.1980 C.ar    1  UNL1       -0.0360
      7 C          48.0330   16.0490   20.2240 C.ar    1  UNL1        0.0849
      8 C          48.3870   17.0690   19.2560 C.ar    1  UNL1        0.1649
      9 O          49.5690   17.7330   19.2050 O.3     1  UNL1       -0.4531
     10 C          49.7420   18.9740   19.9740 C.ar    1  UNL1        0.1291
     11 C          49.0350   19.2610   21.2370 C.ar    1  UNL1       -0.0159
     12 C          49.2750   20.4960   21.9270 C.ar    1  UNL1       -0.0164
     13 C          50.2030   21.4660   21.4150 C.ar    1  UNL1        0.1205
     14 O          50.4060   22.6440   22.1190 O.3     1  UNL1       -0.5065
     15 C          50.9200   21.2220   20.1640 C.ar    1  UNL1        0.0001
     16 C          50.6760   19.9660   19.4610 C.ar    1  UNL1       -0.0124
     17 C          51.9350   22.2960   19.6090 C.3     1  UNL1       -0.0180
     18 C          51.1840   23.1260   18.5450 C.3     1  UNL1       -0.0585
     19 C          53.2190   21.6470   18.9470 C.3     1  UNL1       -0.0585
     20 C          47.4300   17.4280   18.2780 C.ar    1  UNL1        0.0849
     21 C          46.1400   16.8120   18.2200 C.ar    1  UNL1       -0.0360
     22 CL         47.7790   18.6250   17.1200 Cl      1  UNL1       -0.0797
     23 CL         49.1380   15.5690   21.3860 Cl      1  UNL1       -0.0797
     24 H          45.4529   13.2407   17.9811 H       1  UNL1        0.2951
     25 H          44.6257   14.2981   20.0230 H       1  UNL1        0.0426
     26 H          43.8090   15.8713   19.5215 H       1  UNL1        0.0426
     27 H          46.5195   14.7076   20.8995 H       1  UNL1        0.0636
     28 H          48.3687   18.5743   21.6236 H       1  UNL1        0.0655
     29 H          48.7720   20.6910   22.8068 H       1  UNL1        0.0655
     30 H          49.9446   22.7965   22.9202 H       1  UNL1        0.2921
     31 H          51.1776   19.7768   18.5792 H       1  UNL1        0.0658
     32 H          52.2797   22.8942   20.4265 H       1  UNL1        0.0345
     33 H          50.8619   22.4828   17.7529 H       1  UNL1        0.0235
     34 H          51.8373   23.8766   18.1517 H       1  UNL1        0.0235
     35 H          50.3324   23.5937   18.9932 H       1  UNL1        0.0235
     36 H          52.9236   21.0360   18.1197 H       1  UNL1        0.0235
     37 H          53.7280   21.0454   19.6708 H       1  UNL1        0.0235
     38 H          53.8729   22.4210   18.6032 H       1  UNL1        0.0235
     39 H          45.4623   17.0846   17.4910 H       1  UNL1        0.0636
@<TRIPOS>BOND
     1     1     2    1
     2     2     3    2
     3     2     4    1
     4     4     5    1
     5     5     6   ar
     6     6     7   ar
     7     7     8   ar
     8     8     9    1
     9     9    10    1
    10    10    11   ar
    11    11    12   ar
    12    12    13   ar
    13    13    14    1
    14    13    15   ar
    15    10    16   ar
    16    15    16   ar
    17    15    17    1
    18    17    18    1
    19    17    19    1
    20     8    20   ar
    21     5    21   ar
    22    20    21   ar
    23    20    22    1
    24     7    23    1
    25     1    24    1
    26     4    25    1
    27     4    26    1
    28     6    27    1
    29    11    28    1
    30    12    29    1
    31    14    30    1
    32    16    31    1
    33    17    32    1
    34    18    33    1
    35    18    34    1
    36    18    35    1
    37    19    36    1
    38    19    37    1
    39    19    38    1
    40    21    39    1
