@<TRIPOS>MOLECULE
1NAV_IH5_A_600
 39 40 0 0 0
SMALL
GASTEIGER

@<TRIPOS>ATOM
      1 O          -3.8314   -0.1340    3.4289 O.3     1  UNL1       -0.4804
      2 C          -3.3220    1.1607    3.4349 C.2     1  UNL1        0.3091
      3 O          -3.9586    2.0912    2.8719 O.2     1  UNL1       -0.2507
      4 C          -1.9957    1.4355    4.0673 C.3     1  UNL1        0.0700
      5 C          -0.8930    1.2037    3.0719 C.ar    1  UNL1       -0.0338
      6 C          -0.4542    2.2491    2.2460 C.ar    1  UNL1       -0.0360
      7 C           0.5459    2.0266    1.2942 C.ar    1  UNL1        0.0849
      8 C           1.1031    0.7485    1.1409 C.ar    1  UNL1        0.1649
      9 O           2.0932    0.5477    0.1699 O.3     1  UNL1       -0.4531
     10 C           1.9906   -0.3634   -0.8923 C.ar    1  UNL1        0.1291
     11 C           3.1470   -0.6979   -1.5994 C.ar    1  UNL1       -0.0159
     12 C           3.0895   -1.6012   -2.6609 C.ar    1  UNL1       -0.0164
     13 C           1.8701   -2.1820   -3.0355 C.ar    1  UNL1        0.1205
     14 O           1.8371   -3.0868   -4.0968 O.3     1  UNL1       -0.5065
     15 C           0.6871   -1.8476   -2.3404 C.ar    1  UNL1        0.0001
     16 C           0.7607   -0.9276   -1.2758 C.ar    1  UNL1       -0.0124
     17 C          -0.6501   -2.4640   -2.7246 C.3     1  UNL1       -0.0180
     18 C          -1.6363   -1.3907   -3.2014 C.3     1  UNL1       -0.0585
     19 C          -1.2380   -3.2755   -1.5630 C.3     1  UNL1       -0.0585
     20 C           0.6739   -0.3013    1.9776 C.ar    1  UNL1        0.0849
     21 C          -0.3268   -0.0718    2.9280 C.ar    1  UNL1       -0.0360
     22 CL          1.4070   -1.8978    1.8933 Cl      1  UNL1       -0.0797
     23 CL          1.0706    3.3547    0.2708 Cl      1  UNL1       -0.0797
     24 H          -4.7200   -0.3405    2.9888 H       1  UNL1        0.2951
     25 H          -1.8639    0.7720    4.9493 H       1  UNL1        0.0426
     26 H          -1.9662    2.4827    4.4404 H       1  UNL1        0.0426
     27 H          -0.8922    3.2354    2.3399 H       1  UNL1        0.0636
     28 H           4.0969   -0.2604   -1.3197 H       1  UNL1        0.0655
     29 H           3.9980   -1.8525   -3.1935 H       1  UNL1        0.0655
     30 H           2.6750   -3.3389   -4.6078 H       1  UNL1        0.2921
     31 H          -0.1407   -0.6488   -0.7475 H       1  UNL1        0.0658
     32 H          -0.5169   -3.1720   -3.5705 H       1  UNL1        0.0345
     33 H          -1.1916   -0.8109   -4.0384 H       1  UNL1        0.0235
     34 H          -1.8991   -0.6914   -2.3797 H       1  UNL1        0.0235
     35 H          -2.5698   -1.8685   -3.5680 H       1  UNL1        0.0235
     36 H          -0.5071   -4.0417   -1.2263 H       1  UNL1        0.0235
     37 H          -2.1609   -3.7982   -1.8936 H       1  UNL1        0.0235
     38 H          -1.4940   -2.6215   -0.7026 H       1  UNL1        0.0235
     39 H          -0.6593   -0.8863    3.5602 H       1  UNL1        0.0636
@<TRIPOS>BOND
     1     1     2    1
     2     2     3    2
     3     2     4    1
     4     4     5    1
     5     5     6   ar
     6     6     7   ar
     7     7     8   ar
     8     8     9    1
     9     9    10    1
    10    10    11   ar
    11    11    12   ar
    12    12    13   ar
    13    13    14    1
    14    13    15   ar
    15    10    16   ar
    16    15    16   ar
    17    15    17    1
    18    17    18    1
    19    17    19    1
    20     8    20   ar
    21     5    21   ar
    22    20    21   ar
    23    20    22    1
    24     7    23    1
    25     1    24    1
    26     4    25    1
    27     4    26    1
    28     6    27    1
    29    11    28    1
    30    12    29    1
    31    14    30    1
    32    16    31    1
    33    17    32    1
    34    18    33    1
    35    18    34    1
    36    18    35    1
    37    19    36    1
    38    19    37    1
    39    19    38    1
    40    21    39    1
