
     RDKit          3D

 34 38  0  0  0  0  0  0  0  0999 V2000
  -19.4051   19.3911   34.7432 C   0  0  0  0  0  0  0  0  0  0  0  0
  -20.4316   18.2594   34.9398 C   0  0  2  0  0  0  0  0  0  0  0  0
  -21.8444   18.8721   35.0617 C   0  0  0  0  0  0  0  0  0  0  0  0
  -20.1424   17.5229   36.2647 C   0  0  0  0  0  0  0  0  0  0  0  0
  -19.2145   16.9404   33.1159 C   0  0  0  0  0  0  0  0  0  0  0  0
  -18.7606   15.4645   31.1291 C   0  0  0  0  0  0  0  0  0  0  0  0
  -14.8939   16.0098   28.4626 C   0  0  0  0  0  0  0  0  0  0  0  0
  -14.0506   14.7628   28.3158 C   0  0  0  0  0  0  0  0  0  0  0  0
  -14.4139   12.5463   27.2451 C   0  0  0  0  0  0  0  0  0  0  0  0
  -16.9877   14.1531   29.3164 C   0  0  0  0  0  0  0  0  0  0  0  0
  -18.2648   13.6377   29.6164 C   0  0  0  0  0  0  0  0  0  0  0  0
  -17.8741    9.2563   27.1064 C   0  0  0  0  0  0  0  0  0  0  0  0
  -18.7890    8.1848   26.5173 C   0  0  0  0  0  0  0  0  0  0  0  0
  -17.7702    9.2381   28.6294 C   0  0  0  0  0  0  0  0  0  0  0  0
  -18.1458   19.1686   35.2343 N   0  0  0  0  0  0  0  0  0  0  0  0
  -19.6490   20.4472   34.1632 O   0  0  0  0  0  0  0  0  0  0  0  0
  -20.3405   17.3532   33.7827 N   0  0  0  0  0  0  0  0  0  0  0  0
  -19.6327   16.1348   32.0777 C   0  0  0  0  0  0  0  0  0  0  0  0
  -21.0404   16.1458   32.1864 C   0  0  0  0  0  0  0  0  0  0  0  0
  -21.4776   16.9066   33.1923 N   0  0  0  0  0  0  0  0  0  0  0  0
  -17.5007   15.9942   30.8339 C   0  0  0  0  0  0  0  0  0  0  0  0
  -16.6307   15.3669   29.9230 C   0  0  0  0  0  0  0  0  0  0  0  0
  -15.4557   16.0540   29.7704 O   0  0  0  0  0  0  0  0  0  0  0  0
  -14.8512   13.5934   28.0227 N   0  0  0  0  0  0  0  0  0  0  0  0
  -15.4688   11.6731   27.1736 C   0  0  0  0  0  0  0  0  0  0  0  0
  -16.5226   12.1850   27.8975 N   0  0  0  0  0  0  0  0  0  0  0  0
  -16.1386   13.3348   28.4302 C   0  0  0  0  0  0  0  0  0  0  0  0
  -19.1399   14.2790   30.5021 C   0  0  0  0  0  0  0  0  0  0  0  0
  -15.5966   10.2941   26.4306 C   0  0  0  0  0  0  0  0  0  0  0  0
  -14.6380    9.8827   25.6168 N   0  0  0  0  0  0  0  0  0  0  0  0
  -15.0657    8.6748   25.1646 C   0  0  0  0  0  0  0  0  0  0  0  0
  -14.2811    7.8543   24.2231 C   0  0  0  0  0  0  0  0  0  0  0  0
  -16.2488    8.2909   25.6443 N   0  0  0  0  0  0  0  0  0  0  0  0
  -16.5830    9.3357   26.4436 N   0  0  0  0  0  0  0  0  0  0  0  0
  1  2  1  0
  2  3  1  1
  2  4  1  0
  7  8  1  0
 10 11  4  0
 12 13  1  0
 12 14  1  0
  1 15  1  0
  1 16  2  0
  5 17  4  0
  2 17  1  0
  6 18  1  0
  5 18  4  0
 18 19  4  0
 19 20  4  0
 17 20  4  0
  6 21  4  0
 10 22  4  0
 21 22  4  0
 22 23  1  0
  7 23  1  0
  9 24  4  0
  8 24  1  0
  9 25  4  0
 25 26  4  0
 26 27  4  0
 24 27  4  0
 10 27  1  0
 11 28  4  0
  6 28  4  0
 25 29  1  0
 29 30  4  0
 30 31  4  0
 31 32  1  0
 31 33  4  0
 33 34  4  0
 12 34  1  0
 29 34  4  0
M  END
