1YV3_BIT_A_800
     RDKit          3D

 22 25  0  0  0  0  0  0  0  0999 V2000
   17.6324   29.2197   46.6421 O   0  0  0  0  0  0  0  0  0  0  0  0
   18.6365   28.8332   47.2686 C   0  0  0  0  0  0  0  0  0  0  0  0
   19.4625   29.6352   48.0998 C   0  0  0  0  0  0  0  0  0  0  0  0
   19.4286   31.0360   48.0102 C   0  0  0  0  0  0  0  0  0  0  0  0
   20.3057   31.7985   48.7582 C   0  0  0  0  0  0  0  0  0  0  0  0
   20.3165   33.3035   48.6885 C   0  0  0  0  0  0  0  0  0  0  0  0
   21.2812   31.1908   49.6179 C   0  0  0  0  0  0  0  0  0  0  0  0
   20.4411   29.0429   48.9550 C   0  0  0  0  0  0  0  0  0  0  0  0
   21.3497   29.7926   49.7049 C   0  0  0  0  0  0  0  0  0  0  0  0
   19.1571   27.4546   47.0382 C   0  0  2  0  0  0  0  0  0  0  0  0
   19.6966   26.8708   48.3534 C   0  0  0  0  0  0  0  0  0  0  0  0
   20.5263   27.6878   49.1123 N   0  0  0  0  0  0  0  0  0  0  0  0
   20.2422   27.6265   46.0062 O   0  0  0  0  0  0  0  0  0  0  0  0
   18.1059   26.3914   46.6439 C   0  0  0  0  0  0  0  0  0  0  0  0
   18.7294   25.1144   47.2022 C   0  0  0  0  0  0  0  0  0  0  0  0
   19.5949   25.5501   48.3190 N   0  0  0  0  0  0  0  0  0  0  0  0
   20.2899   24.5708   49.0787 C   0  0  0  0  0  0  0  0  0  0  0  0
   20.9270   25.0338   50.2519 C   0  0  0  0  0  0  0  0  0  0  0  0
   21.6035   24.1458   51.1110 C   0  0  0  0  0  0  0  0  0  0  0  0
   21.5736   22.7950   50.8062 C   0  0  0  0  0  0  0  0  0  0  0  0
   20.9122   22.3122   49.6570 C   0  0  0  0  0  0  0  0  0  0  0  0
   20.2894   23.2112   48.7770 C   0  0  0  0  0  0  0  0  0  0  0  0
  1  2  2  0
  2  3  1  0
  3  4  1  0
  4  5  2  0
  5  6  1  0
  5  7  1  0
  3  8  2  0
  7  9  2  0
  8  9  1  0
  2 10  1  0
 10 11  1  0
  8 12  1  0
 11 12  2  0
 10 13  1  6
 10 14  1  0
 14 15  1  0
 11 16  1  0
 15 16  1  0
 16 17  1  0
 17 18  2  0
 18 19  1  0
 19 20  2  0
 20 21  1  0
 17 22  1  0
 21 22  2  0
M  END
