1YV3_BIT_A_800
     RDKit          3D

 22 25  0  0  0  0  0  0  0  0999 V2000
   17.3466   29.3092   47.2421 O   0  0  0  0  0  0  0  0  0  0  0  0
   18.4677   28.8579   47.5411 C   0  0  0  0  0  0  0  0  0  0  0  0
   19.6103   29.6243   47.8924 C   0  0  0  0  0  0  0  0  0  0  0  0
   19.6792   30.9933   47.5878 C   0  0  0  0  0  0  0  0  0  0  0  0
   20.8354   31.7032   47.8513 C   0  0  0  0  0  0  0  0  0  0  0  0
   20.9629   33.1702   47.5324 C   0  0  0  0  0  0  0  0  0  0  0  0
   21.9934   31.0675   48.4125 C   0  0  0  0  0  0  0  0  0  0  0  0
   20.7709   29.0027   48.4458 C   0  0  0  0  0  0  0  0  0  0  0  0
   21.9559   29.6958   48.7023 C   0  0  0  0  0  0  0  0  0  0  0  0
   18.7367   27.3997   47.3792 C   0  0  2  0  0  0  0  0  0  0  0  0
   19.6572   26.9075   48.5071 C   0  0  0  0  0  0  0  0  0  0  0  0
   20.7784   27.6794   48.7878 N   0  0  0  0  0  0  0  0  0  0  0  0
   19.3865   27.2822   46.0242 O   0  0  0  0  0  0  0  0  0  0  0  0
   17.5184   26.4635   47.5524 C   0  0  0  0  0  0  0  0  0  0  0  0
   18.1775   25.1861   48.0674 C   0  0  0  0  0  0  0  0  0  0  0  0
   19.4252   25.6222   48.7303 N   0  0  0  0  0  0  0  0  0  0  0  0
   20.2516   24.6510   49.3572 C   0  0  0  0  0  0  0  0  0  0  0  0
   21.3105   25.1544   50.1459 C   0  0  0  0  0  0  0  0  0  0  0  0
   22.1643   24.2877   50.8559 C   0  0  0  0  0  0  0  0  0  0  0  0
   21.8984   22.9291   50.8094 C   0  0  0  0  0  0  0  0  0  0  0  0
   20.8238   22.4128   50.0545 C   0  0  0  0  0  0  0  0  0  0  0  0
   20.0133   23.2798   49.3050 C   0  0  0  0  0  0  0  0  0  0  0  0
  1  2  2  0
  2  3  1  0
  3  4  1  0
  4  5  2  0
  5  6  1  0
  5  7  1  0
  3  8  2  0
  7  9  2  0
  8  9  1  0
  2 10  1  0
 10 11  1  0
  8 12  1  0
 11 12  2  0
 10 13  1  6
 10 14  1  0
 14 15  1  0
 11 16  1  0
 15 16  1  0
 16 17  1  0
 17 18  2  0
 18 19  1  0
 19 20  2  0
 20 21  1  0
 17 22  1  0
 21 22  2  0
M  END
