7NXO_UU8_A_401
     RDKit          3D

 34 37  0  0  0  0  0  0  0  0999 V2000
   24.6121   -4.3277   -8.3201 N   0  0  0  0  0  0  0  0  0  0  0  0
   25.5711   -4.6498   -7.4300 C   0  0  0  0  0  0  0  0  0  0  0  0
   25.3581   -4.3556   -6.0858 C   0  0  0  0  0  0  0  0  0  0  0  0
   24.1777   -3.7458   -5.7035 C   0  0  0  0  0  0  0  0  0  0  0  0
   23.2454   -3.4419   -6.6335 N   0  0  0  0  0  0  0  0  0  0  0  0
   23.4500   -3.7258   -7.9341 C   0  0  0  0  0  0  0  0  0  0  0  0
   24.1635   -5.7111  -10.2448 C   0  0  0  0  0  0  0  0  0  0  0  0
   24.2484   -6.0037  -11.5745 C   0  0  0  0  0  0  0  0  0  0  0  0
   25.5301   -3.9698  -11.9530 C   0  0  0  0  0  0  0  0  0  0  0  0
   28.1400   -2.5920  -13.7141 C   0  0  0  0  0  0  0  0  0  0  0  0
   28.5401   -0.5130  -14.7192 C   0  0  0  0  0  0  0  0  0  0  0  0
   26.5077   -0.9096  -13.6151 C   0  0  0  0  0  0  0  0  0  0  0  0
   25.1841   -0.3804  -13.2080 C   0  0  0  0  0  0  0  0  0  0  0  0
   27.3193   -0.0605  -14.3281 C   0  0  0  0  0  0  0  0  0  0  0  0
   28.9600   -1.7765  -14.4177 C   0  0  0  0  0  0  0  0  0  0  0  0
   26.8369   -2.1972  -13.2615 C   0  0  0  0  0  0  0  0  0  0  0  0
   26.1820   -3.0856  -12.6057 O   0  0  0  0  0  0  0  0  0  0  0  0
   25.3929   -3.7393  -10.5437 C   0  0  0  0  0  0  0  0  0  0  0  0
   24.9318   -5.1238  -12.4010 C   0  0  0  0  0  0  0  0  0  0  0  0
   24.9721   -5.5105  -13.7887 C   0  0  0  0  0  0  0  0  0  0  0  0
   24.9957   -5.8010  -14.8999 N   0  0  0  0  0  0  0  0  0  0  0  0
   23.5075   -6.5435   -9.4121 F   0  0  0  0  0  0  0  0  0  0  0  0
   24.7293   -4.5856   -9.7165 C   0  0  0  0  0  0  0  0  0  0  0  0
   26.6286   -5.2036   -7.8249 O   0  0  0  0  0  0  0  0  0  0  0  0
   22.5544   -3.4291   -8.7942 O   0  0  0  0  0  0  0  0  0  0  0  0
   23.8071   -3.3352   -4.0494 S   0  0  1  0  0  0  0  0  0  0  0  0
   25.0456   -3.0220   -3.2559 O   0  0  0  0  0  0  0  0  0  0  0  0
   22.9164   -2.1229   -3.9681 O   0  0  0  0  0  0  0  0  0  0  0  0
   22.9613   -4.6155   -3.2092 C   0  0  0  0  0  0  0  0  0  0  0  0
   23.6580   -5.5176   -2.4246 C   0  0  0  0  0  0  0  0  0  0  0  0
   23.0214   -6.5479   -1.7408 C   0  0  0  0  0  0  0  0  0  0  0  0
   21.6323   -6.6722   -1.8527 C   0  0  0  0  0  0  0  0  0  0  0  0
   20.9395   -5.7713   -2.6358 C   0  0  0  0  0  0  0  0  0  0  0  0
   21.5866   -4.7509   -3.3105 C   0  0  0  0  0  0  0  0  0  0  0  0
  1  2  1  0
  2  3  1  0
  3  4  2  0
  4  5  1  0
  1  6  1  0
  5  6  1  0
  7  8  2  0
 12 13  1  0
 12 14  1  0
 11 14  2  0
 11 15  1  0
 10 15  2  0
 12 16  2  0
 10 16  1  0
 16 17  1  0
  9 17  1  0
  9 18  1  0
  9 19  2  0
  8 19  1  0
 19 20  1  0
 20 21  3  0
  7 22  1  0
 18 23  2  0
  7 23  1  0
  1 23  1  0
  2 24  2  0
  6 25  2  0
 26  4  1  6
 26 27  2  0
 26 28  2  0
 26 29  1  0
 29 30  2  0
 30 31  1  0
 31 32  2  0
 32 33  1  0
 29 34  1  0
 33 34  2  0
M  END
$$$$
