7RWO_7WN_A_3001
     RDKit          3D

 20 22  0  0  0  0  0  0  0  0999 V2000
    6.1736    2.5186   -3.4109 N   0  0  0  0  0  0  0  0  0  0  0  0
    6.6257    1.3375   -4.0597 C   0  0  0  0  0  0  0  0  0  0  0  0
    6.1390    0.0434   -3.5060 C   0  0  0  0  0  0  0  0  0  0  0  0
    6.2854    0.1056   -2.0292 C   0  0  0  0  0  0  0  0  0  0  0  0
    6.7904   -0.9292   -1.2714 C   0  0  0  0  0  0  0  0  0  0  0  0
    6.8933   -0.7921    0.0936 C   0  0  0  0  0  0  0  0  0  0  0  0
    5.6319   -1.7431    2.7745 C   0  0  0  0  0  0  0  0  0  0  0  0
    6.4165   -1.4555    5.3350 C   0  0  0  0  0  0  0  0  0  0  0  0
    6.7415   -0.4846    4.4105 C   0  0  0  0  0  0  0  0  0  0  0  0
    6.3466   -0.6061    3.0693 C   0  0  0  0  0  0  0  0  0  0  0  0
    6.4986    0.3773    0.7574 C   0  0  0  0  0  0  0  0  0  0  0  0
    6.0053    1.3770   -0.0283 C   0  0  0  0  0  0  0  0  0  0  0  0
    5.8897    1.2680   -1.4027 C   0  0  0  0  0  0  0  0  0  0  0  0
    5.3525    2.3539   -2.2602 C   0  0  0  0  0  0  0  0  0  0  0  0
    5.4054   -3.5297    6.0084 C   0  0  0  0  0  0  0  0  0  0  0  0
    6.6742    0.4074    2.1419 N   0  0  0  0  0  0  0  0  0  0  0  0
    5.3353   -2.6739    3.7238 N   0  0  0  0  0  0  0  0  0  0  0  0
    5.7121   -2.5492    4.9849 N   0  0  0  0  0  0  0  0  0  0  0  0
    6.7907   -1.3071    6.5283 O   0  0  0  0  0  0  0  0  0  0  0  0
    7.6639    0.9208    4.9317 Cl  0  0  0  0  0  0  0  0  0  0  0  0
  2  1  1  6
  2  3  1  0
  3  4  1  1
  4  5  1  0
  5  6  2  0
  8  9  1  0
  7 10  1  0
  9 10  2  0
  6 11  1  0
 11 12  2  0
  4 13  2  0
 12 13  1  0
 14  1  1  6
 13 14  1  0
 11 16  1  0
 10 16  1  0
  7 17  2  0
 17 18  1  0
  8 18  1  0
 15 18  1  6
  8 19  2  0
  9 20  1  0
M  END
$$$$
