7Q5I_I0F_AAA_901
     RDKit          3D

 50 51  0  0  0  0  0  0  0  0999 V2000
   35.0375   22.7799   29.5897 N   0  0  0  0  0  0  0  0  0  0  0  0
   32.9284   21.3896   26.1941 C   0  0  2  0  0  0  0  0  0  0  0  0
   32.8107   20.7135   27.5756 C   0  0  2  0  0  0  0  0  0  0  0  0
   31.3921   20.2327   27.8532 C   0  0  0  0  0  0  0  0  0  0  0  0
   34.7258   24.0748   29.6655 C   0  0  0  0  0  0  0  0  0  0  0  0
   35.6569   24.9305   30.5354 C   0  0  0  0  0  0  0  0  0  0  0  0
   36.3356   25.3925   32.9927 C   0  0  0  0  0  0  0  0  0  0  0  0
   38.1602   26.6569   34.7418 C   0  0  0  0  0  0  0  0  0  0  0  0
   35.9034   25.8176   34.2579 C   0  0  0  0  0  0  0  0  0  0  0  0
   38.9018   28.7535   35.8065 C   0  0  0  0  0  0  0  0  0  0  0  0
   40.2854   26.6122   35.9728 C   0  0  0  0  0  0  0  0  0  0  0  0
   39.0508   27.3086   35.5753 N   0  0  0  0  0  0  0  0  0  0  0  0
   36.8141   26.4465   35.1092 C   0  0  0  0  0  0  0  0  0  0  0  0
   38.5745   26.2037   33.4802 C   0  0  0  0  0  0  0  0  0  0  0  0
   37.6633   25.5817   32.6277 C   0  0  0  0  0  0  0  0  0  0  0  0
   35.5341   24.7832   32.0180 C   0  0  0  0  0  0  0  0  0  0  0  0
   36.3926   25.9237   29.8841 C   0  0  0  0  0  0  0  0  0  0  0  0
   36.9723   26.6627   29.2819 N   0  0  0  0  0  0  0  0  0  0  0  0
   33.7370   24.5650   29.1348 O   0  0  0  0  0  0  0  0  0  0  0  0
   34.6202   21.9840   28.4308 C   0  0  1  0  0  0  0  0  0  0  0  0
   33.1892   21.6404   28.6117 O   0  0  0  0  0  0  0  0  0  0  0  0
   31.3553   18.8042   27.8437 O   0  0  0  0  0  0  0  0  0  0  0  0
   32.6641   20.4298   25.1662 O   0  0  0  0  0  0  0  0  0  0  0  0
   34.3270   21.9582   25.9784 C   0  0  1  0  0  0  0  0  0  0  0  0
   34.3468   22.7122   24.7740 O   0  0  0  0  0  0  0  0  0  0  0  0
   34.7535   22.8286   27.1774 C   0  0  2  0  0  0  0  0  0  0  0  0
   36.1217   23.2239   27.0520 O   0  0  0  0  0  0  0  0  0  0  0  0
   35.5503   22.3565   30.3155 H   0  0  0  0  0  0  0  0  0  0  0  0
   32.2171   22.1880   26.1552 H   0  0  0  0  0  0  0  0  0  0  0  0
   33.4652   19.8669   27.5692 H   0  0  0  0  0  0  0  0  0  0  0  0
   31.0771   20.5898   28.8115 H   0  0  0  0  0  0  0  0  0  0  0  0
   30.7368   20.6086   27.0954 H   0  0  0  0  0  0  0  0  0  0  0  0
   34.9264   25.6677   34.5552 H   0  0  0  0  0  0  0  0  0  0  0  0
   37.9441   29.0743   35.4532 H   0  0  0  0  0  0  0  0  0  0  0  0
   38.9820   28.9574   36.8539 H   0  0  0  0  0  0  0  0  0  0  0  0
   39.6708   29.2800   35.2807 H   0  0  0  0  0  0  0  0  0  0  0  0
   40.2051   25.5745   35.7248 H   0  0  0  0  0  0  0  0  0  0  0  0
   41.1187   27.0392   35.4547 H   0  0  0  0  0  0  0  0  0  0  0  0
   40.4298   26.7167   37.0278 H   0  0  0  0  0  0  0  0  0  0  0  0
   36.4926   26.7675   36.0359 H   0  0  0  0  0  0  0  0  0  0  0  0
   39.5547   26.3308   33.1829 H   0  0  0  0  0  0  0  0  0  0  0  0
   37.9826   25.2538   31.7027 H   0  0  0  0  0  0  0  0  0  0  0  0
   34.7794   24.1678   32.3598 H   0  0  0  0  0  0  0  0  0  0  0  0
   35.2217   21.1034   28.3434 H   0  0  0  0  0  0  0  0  0  0  0  0
   31.9486   18.4607   28.5299 H   0  0  0  0  0  0  0  0  0  0  0  0
   33.3172   19.7144   25.2162 H   0  0  0  0  0  0  0  0  0  0  0  0
   35.0261   21.1521   25.8986 H   0  0  0  0  0  0  0  0  0  0  0  0
   33.7146   23.4449   24.8405 H   0  0  0  0  0  0  0  0  0  0  0  0
   34.1395   23.7040   27.2181 H   0  0  0  0  0  0  0  0  0  0  0  0
   36.6842   22.4344   27.0146 H   0  0  0  0  0  0  0  0  0  0  0  0
  2  3  1  0
  3  4  1  0
  1  5  1  0
  5  6  1  0
  7  9  4  0
  8 12  1  0
 10 12  1  0
 11 12  1  0
  9 13  4  0
  8 13  4  0
  8 14  4  0
  7 15  4  0
 14 15  4  0
  6 16  2  3
  7 16  1  0
  6 17  1  0
 17 18  3  0
  5 19  2  0
 20  1  1  0
  3 21  1  0
 20 21  1  0
  4 22  1  0
  2 23  1  0
  2 24  1  0
 24 25  1  0
 24 26  1  0
 20 26  1  0
 26 27  1  0
  1 28  1  0
  2 29  1  6
  3 30  1  1
  4 31  1  0
  4 32  1  0
  9 33  1  0
 10 34  1  0
 10 35  1  0
 10 36  1  0
 11 37  1  0
 11 38  1  0
 11 39  1  0
 13 40  1  0
 14 41  1  0
 15 42  1  0
 16 43  1  0
 20 44  1  1
 22 45  1  0
 23 46  1  0
 24 47  1  1
 25 48  1  0
 26 49  1  6
 27 50  1  0
M  END
