
     RDKit          3D

 47 49  0  0  0  0  0  0  0  0999 V2000
   18.6883   21.7590   13.9065 N   0  0  0  0  0  0  0  0  0  0  0  0
   19.1826   21.6893   15.1624 C   0  0  0  0  0  0  0  0  0  0  0  0
   18.5095   21.7221   16.3297 N   0  0  0  0  0  0  0  0  0  0  0  0
   17.1895   21.8478   16.1157 C   0  0  0  0  0  0  0  0  0  0  0  0
   16.5409   21.9360   14.8944 C   0  0  0  0  0  0  0  0  0  0  0  0
   17.3517   21.8966   13.7482 C   0  0  0  0  0  0  0  0  0  0  0  0
   16.8498   21.9725   12.4548 N   0  0  0  0  0  0  0  0  0  0  0  0
   15.1747   22.0389   15.0720 N   0  0  0  0  0  0  0  0  0  0  0  0
   15.0039   22.0219   16.3783 C   0  0  0  0  0  0  0  0  0  0  0  0
   16.1935   21.9248   17.0490 N   0  0  0  0  0  0  0  0  0  0  0  0
   16.4006   21.9363   18.4813 C   0  0  1  0  0  0  0  0  0  0  0  0
   15.1357   22.2753   19.2711 C   0  0  2  0  0  0  0  0  0  0  0  0
   14.8022   23.6520   19.3544 O   0  0  0  0  0  0  0  0  0  0  0  0
   15.4759   21.6775   20.6218 C   0  0  2  0  0  0  0  0  0  0  0  0
   16.3910   22.5364   21.3052 O   0  0  0  0  0  0  0  0  0  0  0  0
   15.8623   23.2543   22.6365 P   0  0  0  0  0  5  0  0  0  0  0  0
   15.7541   24.7362   22.5699 O   0  0  0  0  0  0  0  0  0  0  0  0
   14.5024   22.5043   22.9931 O   0  0  0  0  0  0  0  0  0  0  0  0
   16.8315   22.6962   23.7728 O   0  0  0  0  0  0  0  0  0  0  0  0
   16.2089   20.3930   20.2294 C   0  0  2  0  0  0  0  0  0  0  0  0
   16.7922   20.6145   18.9251 O   0  0  0  0  0  0  0  0  0  0  0  0
   15.2780   19.1823   20.1774 C   0  0  0  0  0  0  0  0  0  0  0  0
   15.1213   18.6861   21.4914 O   0  0  0  0  0  0  0  0  0  0  0  0
   13.6363   18.3737   22.0127 P   0  0  2  0  0  5  0  0  0  0  0  0
   12.6100   19.3952   21.6597 O   0  0  0  0  0  0  0  0  0  0  0  0
   13.8551   18.2117   23.5956 O   0  0  0  0  0  0  0  0  0  0  0  0
   13.3919   16.8845   21.5269 O   0  0  0  0  0  0  0  0  0  0  0  0
   14.2973   15.7003   22.0617 P   0  0  1  0  0  5  0  0  0  0  0  0
   15.7589   16.0138   22.1355 O   0  0  0  0  0  0  0  0  0  0  0  0
   13.6411   15.2981   23.4608 O   0  0  0  0  0  0  0  0  0  0  0  0
   13.9163   14.4588   21.1224 O   0  0  0  0  0  0  0  0  0  0  0  0
   14.6548   12.8950   19.3647 C   0  0  0  0  0  0  0  0  0  0  0  0
   14.5994   14.3510   19.8856 C   0  0  0  0  0  0  0  0  0  0  0  0
   15.8345   12.1546   20.0425 C   0  0  0  0  0  0  0  0  0  0  0  0
   14.9664   12.9430   17.8528 C   0  0  0  0  0  0  0  0  0  0  0  0
   13.3299   12.1161   19.6504 C   0  0  1  0  0  0  0  0  0  0  0  0
   12.2079   12.8847   19.1967 O   0  0  0  0  0  0  0  0  0  0  0  0
   13.2238   10.6900   19.0439 C   0  0  0  0  0  0  0  0  0  0  0  0
   12.6015   10.4765   17.9981 O   0  0  0  0  0  0  0  0  0  0  0  0
   13.8128    9.6886   19.7761 N   0  0  0  0  0  0  0  0  0  0  0  0
   13.8505    8.3145   19.3054 C   0  0  0  0  0  0  0  0  0  0  0  0
   15.2181    7.9064   18.7729 C   0  0  0  0  0  0  0  0  0  0  0  0
   15.2560    6.4367   18.4033 C   0  0  0  0  0  0  0  0  0  0  0  0
   14.4007    5.6368   18.7784 O   0  0  0  0  0  0  0  0  0  0  0  0
   16.3659    6.0769   17.6706 N   0  0  0  0  0  0  0  0  0  0  0  0
   17.0679    4.8329   17.9217 C   0  0  0  0  0  0  0  0  0  0  0  0
   16.9240    3.8682   16.7566 C   0  0  0  0  0  0  0  0  0  0  0  0
  1  2  4  0
  2  3  4  0
  3  4  4  0
  4  5  4  0
  1  6  4  0
  5  6  4  0
  6  7  1  0
  5  8  4  0
  8  9  4  0
  4 10  4  0
  9 10  4  0
 11 10  1  6
 11 12  1  0
 12 13  1  1
 12 14  1  0
 14 15  1  1
 15 16  1  0
 16 17  2  0
 16 18  1  0
 16 19  1  0
 14 20  1  0
 11 21  1  0
 20 21  1  0
 20 22  1  6
 22 23  1  0
 23 24  1  0
 24 25  2  0
 24 26  1  1
 24 27  1  0
 27 28  1  0
 28 29  2  0
 28 30  1  1
 28 31  1  0
 31 33  1  0
 32 33  1  0
 32 34  1  0
 32 35  1  0
 32 36  1  0
 36 37  1  6
 36 38  1  0
 38 39  2  0
 38 40  1  0
 40 41  1  0
 41 42  1  0
 42 43  1  0
 43 44  2  0
 43 45  1  0
 45 46  1  0
 46 47  1  0
M  END
