
     RDKit          3D

 26 28  0  0  0  0  0  0  0  0999 V2000
   -5.8554   -9.0482   33.2154 C   0  0  0  0  0  0  0  0  0  0  0  0
   -7.9797   -7.9889   32.4222 C   0  0  0  0  0  0  0  0  0  0  0  0
   -5.8796   -9.8776   34.3651 C   0  0  0  0  0  0  0  0  0  0  0  0
   -4.7578   -9.8031   35.2119 C   0  0  0  0  0  0  0  0  0  0  0  0
   -5.8001  -12.1739   36.2639 C   0  0  0  0  0  0  0  0  0  0  0  0
   -6.9709   -9.1265   32.1692 C   0  0  2  0  0  0  0  0  0  0  0  0
   -7.6411  -10.5058   32.2713 C   0  0  0  0  0  0  0  0  0  0  0  0
   -8.0676  -10.8066   33.6923 C   0  0  0  0  0  0  0  0  0  0  0  0
   -7.0943  -11.4315   35.9321 C   0  0  0  0  0  0  0  0  0  0  0  0
   -8.2921  -12.3879   35.9650 C   0  0  0  0  0  0  0  0  0  0  0  0
   -6.4505   -9.0012   30.7175 C   0  0  0  0  0  0  0  0  0  0  0  0
   -6.9467  -10.7402   34.6310 N   0  0  0  0  0  0  0  0  0  0  0  0
   -4.7960   -8.1246   33.0304 C   0  0  0  0  0  0  0  0  0  0  0  0
   -3.7013   -8.9079   34.9969 C   0  0  0  0  0  0  0  0  0  0  0  0
   -3.7113   -8.0373   33.9108 C   0  0  0  0  0  0  0  0  0  0  0  0
   -2.6206   -7.0757   33.6886 C   0  0  0  0  0  0  0  0  0  0  0  0
   -2.7537   -5.7306   34.0642 C   0  0  0  0  0  0  0  0  0  0  0  0
   -1.7163   -4.8146   33.8525 C   0  0  0  0  0  0  0  0  0  0  0  0
   -0.5119   -5.2213   33.2684 C   0  0  0  0  0  0  0  0  0  0  0  0
   -0.3770   -6.5572   32.8755 C   0  0  0  0  0  0  0  0  0  0  0  0
   -1.4157   -7.4720   33.0887 C   0  0  0  0  0  0  0  0  0  0  0  0
    0.5382   -4.2198   33.0404 C   0  0  0  0  0  0  0  0  0  0  0  0
    0.4534   -3.2347   32.1339 C   0  0  0  0  0  0  0  0  0  0  0  0
    1.5691   -2.2938   31.9769 C   0  0  0  0  0  0  0  0  0  0  0  0
    1.4613   -1.6424   30.8081 O   0  0  0  0  0  0  0  0  0  0  0  0
    2.4823   -2.0886   32.7524 O   0  0  0  0  0  0  0  0  0  0  0  0
  1  3  4  0
  3  4  4  0
  1  6  1  0
  6  2  1  1
  6  7  1  0
  7  8  1  0
  5  9  1  0
  9 10  1  0
  6 11  1  0
  8 12  1  0
  9 12  1  0
  3 12  1  0
  1 13  4  0
  4 14  4  0
 13 15  4  0
 14 15  4  0
 15 16  1  0
 16 17  4  0
 17 18  4  0
 18 19  4  0
 19 20  4  0
 16 21  4  0
 20 21  4  0
 19 22  1  0
 22 23  2  0
 23 24  1  0
 24 25  1  0
 24 26  2  0
M  END
