8CGC_LMR_A_1001
     RDKit          3D

  9  8  0  0  0  0  0  0  0  0999 V2000
   53.2322   44.7229   -5.2330 C   0  0  0  0  0  0  0  0  0  0  0  0
   53.8753   45.2029   -6.2114 O   0  0  0  0  0  0  0  0  0  0  0  0
   53.1403   43.5281   -4.9363 O   0  0  0  0  0  0  0  0  0  0  0  0
   52.5077   45.6901   -4.2951 C   0  0  1  0  0  0  0  0  0  0  0  0
   51.7301   44.9735   -3.3602 O   0  0  0  0  0  0  0  0  0  0  0  0
   53.5094   46.5818   -3.5507 C   0  0  0  0  0  0  0  0  0  0  0  0
   52.7961   47.6575   -2.7467 C   0  0  0  0  0  0  0  0  0  0  0  0
   52.4003   47.3791   -1.5969 O   0  0  0  0  0  0  0  0  0  0  0  0
   52.6626   48.7786   -3.2635 O   0  0  0  0  0  0  0  0  0  0  0  0
  1  2  2  0
  1  3  1  0
  1  4  1  0
  4  5  1  1
  4  6  1  0
  6  7  1  0
  7  8  1  0
  7  9  2  0
M  END
