
     RDKit          3D

 19 20  0  0  0  0  0  0  0  0999 V2000
   79.6147    4.6312   30.5275 N   0  0  0  0  0  0  0  0  0  0  0  0
   80.8972    4.9914   31.0407 C   0  0  0  0  0  0  0  0  0  0  0  0
   81.9500    5.2774   30.1706 C   0  0  0  0  0  0  0  0  0  0  0  0
   81.1032    5.0191   32.4218 C   0  0  0  0  0  0  0  0  0  0  0  0
   83.2119    5.5927   30.6796 C   0  0  0  0  0  0  0  0  0  0  0  0
   82.3655    5.3342   32.9314 C   0  0  0  0  0  0  0  0  0  0  0  0
   83.4147    5.6191   32.0581 C   0  0  0  0  0  0  0  0  0  0  0  0
   84.9682    6.0039   32.6874 Cl  0  0  0  0  0  0  0  0  0  0  0  0
   78.4440    5.8581   30.4753 S   0  0  2  0  0  6  0  0  0  0  0  0
   78.5559    6.6373   28.9248 C   0  0  0  0  0  0  0  0  0  0  0  0
   78.7649    6.8925   31.4339 O   0  0  0  0  0  0  0  0  0  0  0  0
   77.1411    5.2299   30.4458 O   0  0  0  0  0  0  0  0  0  0  0  0
   78.8462    5.9851   27.7384 C   0  0  0  0  0  0  0  0  0  0  0  0
   78.3324    8.0386   28.7405 C   0  0  0  0  0  0  0  0  0  0  0  0
   78.7867    7.0758   26.4105 S   0  0  0  0  0  0  0  0  0  0  0  0
   79.1596    4.6044   27.4641 C   0  0  0  0  0  0  0  0  0  0  0  0
   78.4337    8.4074   27.4192 C   0  0  0  0  0  0  0  0  0  0  0  0
   80.2046    4.4737   26.6102 O   0  0  0  0  0  0  0  0  0  0  0  0
   78.5761    3.6001   27.8429 O   0  0  0  0  0  0  0  0  0  0  0  0
  1  2  1  0
  2  3  4  0
  2  4  4  0
  3  5  4  0
  4  6  4  0
  5  7  4  0
  6  7  4  0
  7  8  1  0
  9  1  1  6
  9 10  1  0
  9 11  2  0
  9 12  2  0
 10 13  4  0
 10 14  4  0
 13 15  4  0
 13 16  1  0
 14 17  4  0
 15 17  4  0
 16 18  1  0
 16 19  2  0
M  END
