6ZX3_QRZ_A_501
     RDKit          3D

 24 25  0  0  0  0  0  0  0  0999 V2000
   15.7004    9.9994   38.1634 C   0  0  0  0  0  0  0  0  0  0  0  0
   14.4209    9.9800   34.7076 C   0  0  0  0  0  0  0  0  0  0  0  0
   13.3376   12.4184   42.5128 O   0  0  0  0  0  0  0  0  0  0  0  0
   11.9248   13.1589   41.9147 P   0  0  1  0  0  5  0  0  0  0  0  0
   10.9433   13.1745   43.0485 O   0  0  0  0  0  0  0  0  0  0  0  0
   12.3829   14.7433   41.5002 O   0  0  0  0  0  0  0  0  0  0  0  0
   11.4001   12.2858   40.5892 O   0  0  0  0  0  0  0  0  0  0  0  0
   11.7338   12.8999   39.3791 C   0  0  0  0  0  0  0  0  0  0  0  0
   12.0528   11.7762   38.4293 C   0  0  2  0  0  0  0  0  0  0  0  0
   11.8386   10.4034   38.9808 C   0  0  1  0  0  0  0  0  0  0  0  0
   10.5014   10.0289   39.0616 O   0  0  0  0  0  0  0  0  0  0  0  0
   12.5699    9.5733   37.9197 C   0  0  1  0  0  0  0  0  0  0  0  0
   11.5803    9.1627   37.0041 O   0  0  0  0  0  0  0  0  0  0  0  0
   13.4167   11.7469   38.1403 O   0  0  0  0  0  0  0  0  0  0  0  0
   13.5034   10.5961   37.3519 C   0  0  1  0  0  0  0  0  0  0  0  0
   14.8465   10.1433   37.1320 N   0  0  0  0  0  0  0  0  0  0  0  0
   15.2676    9.8568   35.8873 C   0  0  0  0  0  0  0  0  0  0  0  0
   16.5609    9.4218   35.6841 C   0  0  0  0  0  0  0  0  0  0  0  0
   17.4326    9.2757   36.7434 C   0  0  0  0  0  0  0  0  0  0  0  0
   18.6207    8.8830   36.6121 O   0  0  0  0  0  0  0  0  0  0  0  0
   16.9741    9.5745   37.9917 N   0  0  0  0  0  0  0  0  0  0  0  0
   15.2949   10.2733   39.3455 O   0  0  0  0  0  0  0  0  0  0  0  0
   13.4184    8.7945   34.2026 S   0  0  0  0  0  0  0  0  0  0  0  0
   14.4734   11.1943   33.9614 N   0  0  0  0  0  0  0  0  0  0  0  0
  4  3  1  1
  4  5  2  0
  4  6  1  0
  4  7  1  0
  8  7  1  6
  9  8  1  0
  9 10  1  0
 10 11  1  6
 10 12  1  0
 12 13  1  6
  9 14  1  1
 14 15  1  0
 12 15  1  0
 15 16  1  1
  1 16  1  0
  2 17  1  0
 16 17  1  0
 17 18  2  0
 18 19  1  0
 19 20  2  0
 19 21  1  0
  1 21  1  0
  1 22  2  0
  2 23  2  0
  2 24  1  0
M  END
$$$$
