7QHL_D5P_A_301
     RDKit          3D

 30 34  0  0  0  0  0  0  0  0999 V2000
   18.6009  -32.4146    1.1894 N   0  0  0  0  0  0  0  0  0  0  0  0
   24.6647  -37.9628    4.8104 N   0  0  0  0  0  0  0  0  0  0  0  0
   23.9269  -37.3124    3.7834 C   0  0  0  0  0  0  0  0  0  0  0  0
   24.7099  -37.5271    6.1771 C   0  0  0  0  0  0  0  0  0  0  0  0
   23.4465  -37.8686    6.9089 C   0  0  0  0  0  0  0  0  0  0  0  0
   22.9039  -36.9665    7.8016 C   0  0  0  0  0  0  0  0  0  0  0  0
   21.7440  -37.2219    8.5041 C   0  0  0  0  0  0  0  0  0  0  0  0
   19.1326  -39.8265    8.7820 C   0  0  0  0  0  0  0  0  0  0  0  0
   21.6421  -39.3392    7.4094 C   0  0  0  0  0  0  0  0  0  0  0  0
   23.8878  -37.8316    2.4861 C   0  0  0  0  0  0  0  0  0  0  0  0
   22.7953  -37.7520   -1.0167 C   0  0  1  0  0  0  0  0  0  0  0  0
   21.7255  -38.7349   -1.4264 C   0  0  0  0  0  0  0  0  0  0  0  0
   23.1790  -37.2195    1.4740 C   0  0  0  0  0  0  0  0  0  0  0  0
   19.7605  -32.3994    2.0801 C   0  0  0  0  0  0  0  0  0  0  0  0
   20.6604  -33.5923    1.7923 C   0  0  0  0  0  0  0  0  0  0  0  0
   21.6084  -34.0697    3.2577 S   0  0  0  0  0  0  0  0  0  0  0  0
   22.5268  -35.5646    2.9933 C   0  0  0  0  0  0  0  0  0  0  0  0
   23.2319  -36.1790    3.9882 N   0  0  0  0  0  0  0  0  0  0  0  0
   21.1109  -38.4270    8.2993 C   0  0  0  0  0  0  0  0  0  0  0  0
   19.9053  -38.7249    9.0112 N   0  0  0  0  0  0  0  0  0  0  0  0
   18.0482  -39.8027    9.6417 C   0  0  0  0  0  0  0  0  0  0  0  0
   18.1940  -38.6583   10.3897 C   0  0  0  0  0  0  0  0  0  0  0  0
   19.3283  -38.0315    9.9810 N   0  0  0  0  0  0  0  0  0  0  0  0
   22.8119  -39.0764    6.7037 C   0  0  0  0  0  0  0  0  0  0  0  0
   24.4634  -38.9331    1.9490 N   0  0  0  0  0  0  0  0  0  0  0  0
   24.1385  -39.0143    0.6718 N   0  0  0  0  0  0  0  0  0  0  0  0
   23.3470  -37.9743    0.3428 C   0  0  0  0  0  0  0  0  0  0  0  0
   23.6702  -38.0740   -2.1721 C   0  0  0  0  0  0  0  0  0  0  0  0
   22.5419  -38.9736   -2.6949 C   0  0  0  0  0  0  0  0  0  0  0  0
   22.5037  -36.0881    1.7403 N   0  0  0  0  0  0  0  0  0  0  0  0
  2  3  1  0
  2  4  1  0
  4  5  1  0
  5  6  2  0
  6  7  1  0
  3 10  2  0
 11 12  1  0
 10 13  1  0
  1 14  1  0
 14 15  1  0
 15 16  1  0
 16 17  1  0
 17 18  2  0
  3 18  1  0
  7 19  2  0
  9 19  1  0
 19 20  1  0
  8 20  1  0
  8 21  2  0
 21 22  1  0
 20 23  1  0
 22 23  2  0
  5 24  1  0
  9 24  2  0
 10 25  1  0
 25 26  1  0
 11 27  1  1
 26 27  2  0
 13 27  1  0
 11 28  1  0
 12 29  1  0
 28 29  1  0
 13 30  2  0
 17 30  1  0
M  END
$$$$
