7XG5_PLP_B_401
     RDKit          3D

 26 26  0  0  0  0  0  0  0  0999 V2000
  -39.9049  -29.7759   18.0395 N   0  0  0  0  0  0  0  0  0  0  0  0
  -39.3152  -30.9264   18.3739 C   0  0  0  0  0  0  0  0  0  0  0  0
  -40.1335  -31.9916   19.0427 C   0  0  0  0  0  0  0  0  0  0  0  0
  -37.9501  -31.1319   18.0969 C   0  0  0  0  0  0  0  0  0  0  0  0
  -37.3742  -32.3081   18.4519 O   0  0  0  0  0  0  0  0  0  0  0  0
  -37.2205  -30.1111   17.4613 C   0  0  0  0  0  0  0  0  0  0  0  0
  -35.8040  -30.3059   17.1532 C   0  0  0  0  0  0  0  0  0  0  0  0
  -35.3787  -30.7054   16.0932 O   0  0  0  0  0  0  0  0  0  0  0  0
  -37.8719  -28.9210   17.1154 C   0  0  0  0  0  0  0  0  0  0  0  0
  -39.2002  -28.7975   17.4204 C   0  0  0  0  0  0  0  0  0  0  0  0
  -37.1240  -27.8067   16.4309 C   0  0  0  0  0  0  0  0  0  0  0  0
  -35.8113  -28.3193   16.0357 O   0  0  0  0  0  0  0  0  0  0  0  0
  -35.3731  -29.8448   16.3601 P   0  0  1  0  0  5  0  0  0  0  0  0
  -36.5140  -30.4657   17.1515 O   0  0  0  0  0  0  0  0  0  0  0  0
  -35.1632  -30.4676   15.0180 O   0  0  0  0  0  0  0  0  0  0  0  0
  -34.0942  -29.7710   17.2412 O   0  0  0  0  0  0  0  0  0  0  0  0
  -41.1387  -31.6456   19.1643 H   0  0  0  0  0  0  0  0  0  0  0  0
  -40.1310  -32.8750   18.4390 H   0  0  0  0  0  0  0  0  0  0  0  0
  -39.7144  -32.2139   20.0018 H   0  0  0  0  0  0  0  0  0  0  0  0
  -37.8843  -32.9709   18.8743 H   0  0  0  0  0  0  0  0  0  0  0  0
  -35.1183  -30.0869   17.8927 H   0  0  0  0  0  0  0  0  0  0  0  0
  -39.6859  -27.9225   17.1684 H   0  0  0  0  0  0  0  0  0  0  0  0
  -37.6642  -27.4852   15.5649 H   0  0  0  0  0  0  0  0  0  0  0  0
  -37.0138  -26.9722   17.0915 H   0  0  0  0  0  0  0  0  0  0  0  0
  -36.0021  -30.4771   14.5312 H   0  0  0  0  0  0  0  0  0  0  0  0
  -34.3106  -29.3567   18.0912 H   0  0  0  0  0  0  0  0  0  0  0  0
  1  2  4  0
  2  3  1  0
  2  4  4  0
  4  5  1  0
  4  6  4  0
  6  7  1  0
  7  8  2  0
  6  9  4  0
  1 10  4  0
  9 10  4  0
  9 11  1  0
 11 12  1  0
 13 12  1  1
 13 14  2  0
 13 15  1  0
 13 16  1  0
  3 17  1  0
  3 18  1  0
  3 19  1  0
  5 20  1  0
  7 21  1  0
 10 22  1  0
 11 23  1  0
 11 24  1  0
 15 25  1  0
 16 26  1  0
M  END
