7U0U_FK5_B_201
     RDKit          3D

126129  0  0  0  0  0  0  0  0999 V2000
  -13.9982    0.1273   -5.2731 C   0  0  0  0  0  0  0  0  0  0  0  0
  -14.1130   -0.9436   -4.2215 C   0  0  2  0  0  0  0  0  0  0  0  0
  -12.7902   -1.4035   -3.5818 C   0  0  0  0  0  0  0  0  0  0  0  0
  -12.9774   -2.7298   -2.7965 C   0  0  0  0  0  0  0  0  0  0  0  0
  -14.4308   -2.9523   -2.3259 C   0  0  0  0  0  0  0  0  0  0  0  0
  -15.4419   -2.8809   -3.4981 C   0  0  0  0  0  0  0  0  0  0  0  0
  -14.6429   -2.8804   -5.8670 C   0  0  0  0  0  0  0  0  0  0  0  0
  -13.3725   -2.8070   -6.6507 C   0  0  0  0  0  0  0  0  0  0  0  0
  -12.4917   -4.0172   -7.0227 C   0  0  1  0  0  0  0  0  0  0  0  0
  -13.0838   -5.4239   -6.6508 C   0  0  1  0  0  0  0  0  0  0  0  0
  -13.9366   -6.0279   -7.7905 C   0  0  0  0  0  0  0  0  0  0  0  0
  -14.3859   -5.0192   -8.8564 C   0  0  1  0  0  0  0  0  0  0  0  0
  -13.1761   -4.1784   -9.3570 C   0  0  1  0  0  0  0  0  0  0  0  0
  -13.5306   -2.7963   -9.9825 C   0  0  2  0  0  0  0  0  0  0  0  0
  -14.7733   -2.7587  -10.9273 C   0  0  0  0  0  0  0  0  0  0  0  0
  -14.4795   -2.8142  -12.4561 C   0  0  2  0  0  0  0  0  0  0  0  0
  -15.6124   -2.1327  -13.2703 C   0  0  0  0  0  0  0  0  0  0  0  0
  -15.8813   -0.6459  -13.0024 C   0  0  0  0  0  0  0  0  0  0  0  0
  -14.9740    0.1520  -12.3686 C   0  0  0  0  0  0  0  0  0  0  0  0
  -15.0759    1.6398  -12.0783 C   0  0  2  0  0  0  0  0  0  0  0  0
  -16.4329    2.0883  -11.5435 C   0  0  0  0  0  0  0  0  0  0  0  0
  -16.9622    1.7152  -10.1697 C   0  0  0  0  0  0  0  0  0  0  0  0
  -15.8868    1.5586   -9.0662 C   0  0  1  0  0  0  0  0  0  0  0  0
  -16.4659    1.7897   -7.6383 C   0  0  2  0  0  0  0  0  0  0  0  0
  -15.3425    1.7732   -6.5567 C   0  0  1  0  0  0  0  0  0  0  0  0
  -15.6708    2.7230   -5.4075 C   0  0  0  0  0  0  0  0  0  0  0  0
  -15.8476    2.2367   -4.1565 C   0  0  0  0  0  0  0  0  0  0  0  0
  -16.0272    3.0781   -2.9083 C   0  0  1  0  0  0  0  0  0  0  0  0
  -17.1626    2.5040   -2.0224 C   0  0  0  0  0  0  0  0  0  0  0  0
  -16.6477    1.5113   -0.9569 C   0  0  2  0  0  0  0  0  0  0  0  0
  -15.6239    2.1956   -0.0036 C   0  0  1  0  0  0  0  0  0  0  0  0
  -14.8773    3.3821   -0.6570 C   0  0  0  0  0  0  0  0  0  0  0  0
  -14.6751    3.1700   -2.1579 C   0  0  0  0  0  0  0  0  0  0  0  0
  -11.9847   -6.4426   -6.2703 C   0  0  0  0  0  0  0  0  0  0  0  0
  -14.3099   -4.2685  -12.9111 C   0  0  0  0  0  0  0  0  0  0  0  0
  -17.1871   -0.1026  -13.5340 C   0  0  0  0  0  0  0  0  0  0  0  0
  -14.5982    2.4503  -13.3065 C   0  0  0  0  0  0  0  0  0  0  0  0
  -15.1787    1.9278  -14.5950 C   0  0  0  0  0  0  0  0  0  0  0  0
  -16.4787    1.6485  -14.7215 C   0  0  0  0  0  0  0  0  0  0  0  0
  -17.6127    0.8107   -7.3070 C   0  0  0  0  0  0  0  0  0  0  0  0
  -15.7839    4.1977   -5.7046 C   0  0  0  0  0  0  0  0  0  0  0  0
  -13.9008   -6.2941  -10.7630 C   0  0  0  0  0  0  0  0  0  0  0  0
  -12.5104   -2.4411  -12.0676 C   0  0  0  0  0  0  0  0  0  0  0  0
  -14.6387    0.3547   -1.2613 C   0  0  0  0  0  0  0  0  0  0  0  0
  -14.8689   -2.1362   -4.6376 N   0  0  0  0  0  0  0  0  0  0  0  0
  -15.1116    0.4461   -6.0621 O   0  0  0  0  0  0  0  0  0  0  0  0
  -12.9438    0.8178   -5.3540 O   0  0  0  0  0  0  0  0  0  0  0  0
  -15.5349   -3.6892   -6.2399 O   0  0  0  0  0  0  0  0  0  0  0  0
  -12.9248   -1.6752   -6.9613 O   0  0  0  0  0  0  0  0  0  0  0  0
  -12.1294   -3.9957   -8.4035 O   0  0  0  0  0  0  0  0  0  0  0  0
  -11.2841   -3.8331   -6.3206 O   0  0  0  0  0  0  0  0  0  0  0  0
  -14.9252   -5.7345   -9.9613 O   0  0  0  0  0  0  0  0  0  0  0  0
  -12.3802   -2.3127  -10.6680 O   0  0  0  0  0  0  0  0  0  0  0  0
  -17.1685    2.7432  -12.2687 O   0  0  0  0  0  0  0  0  0  0  0  0
  -15.3219    0.2773   -9.1637 O   0  0  0  0  0  0  0  0  0  0  0  0
  -16.0105    0.4112   -1.5920 O   0  0  0  0  0  0  0  0  0  0  0  0
  -16.2609    2.6515    1.1604 O   0  0  0  0  0  0  0  0  0  0  0  0
  -14.6929   -0.4431   -3.4136 H   0  0  0  0  0  0  0  0  0  0  0  0
  -12.4183   -0.6175   -2.8924 H   0  0  0  0  0  0  0  0  0  0  0  0
  -12.0189   -1.5543   -4.3653 H   0  0  0  0  0  0  0  0  0  0  0  0
  -12.6941   -3.5875   -3.4415 H   0  0  0  0  0  0  0  0  0  0  0  0
  -12.2950   -2.7429   -1.9192 H   0  0  0  0  0  0  0  0  0  0  0  0
  -14.5092   -3.9388   -1.8196 H   0  0  0  0  0  0  0  0  0  0  0  0
  -14.6740   -2.1727   -1.5722 H   0  0  0  0  0  0  0  0  0  0  0  0
  -15.7326   -3.9145   -3.7887 H   0  0  0  0  0  0  0  0  0  0  0  0
  -16.3622   -2.3626   -3.1536 H   0  0  0  0  0  0  0  0  0  0  0  0
  -13.7146   -5.3270   -5.7422 H   0  0  0  0  0  0  0  0  0  0  0  0
  -14.8259   -6.5136   -7.3351 H   0  0  0  0  0  0  0  0  0  0  0  0
  -13.3715   -6.8273   -8.3167 H   0  0  0  0  0  0  0  0  0  0  0  0
  -15.1266   -4.3132   -8.4346 H   0  0  0  0  0  0  0  0  0  0  0  0
  -12.7133   -4.7765  -10.1737 H   0  0  0  0  0  0  0  0  0  0  0  0
  -13.8271   -2.1436   -9.1337 H   0  0  0  0  0  0  0  0  0  0  0  0
  -15.5325   -3.5119  -10.6654 H   0  0  0  0  0  0  0  0  0  0  0  0
  -15.3057   -1.8146  -10.6970 H   0  0  0  0  0  0  0  0  0  0  0  0
  -13.5343   -2.2950  -12.7175 H   0  0  0  0  0  0  0  0  0  0  0  0
  -16.5564   -2.6941  -13.0772 H   0  0  0  0  0  0  0  0  0  0  0  0
  -15.3899   -2.2373  -14.3556 H   0  0  0  0  0  0  0  0  0  0  0  0
  -14.0262   -0.2723  -12.0608 H   0  0  0  0  0  0  0  0  0  0  0  0
  -14.3251    1.8360  -11.2826 H   0  0  0  0  0  0  0  0  0  0  0  0
  -17.5529    0.7806  -10.2573 H   0  0  0  0  0  0  0  0  0  0  0  0
  -17.6656    2.5241   -9.8630 H   0  0  0  0  0  0  0  0  0  0  0  0
  -15.1097    2.3377   -9.2376 H   0  0  0  0  0  0  0  0  0  0  0  0
  -16.9075    2.8135   -7.6447 H   0  0  0  0  0  0  0  0  0  0  0  0
  -14.4024    2.1321   -7.0296 H   0  0  0  0  0  0  0  0  0  0  0  0
  -15.7431    1.1664   -3.9972 H   0  0  0  0  0  0  0  0  0  0  0  0
  -16.3348    4.1115   -3.1712 H   0  0  0  0  0  0  0  0  0  0  0  0
  -17.9463    2.0313   -2.6506 H   0  0  0  0  0  0  0  0  0  0  0  0
  -17.6659    3.3433   -1.4925 H   0  0  0  0  0  0  0  0  0  0  0  0
  -17.5225    1.1831   -0.3401 H   0  0  0  0  0  0  0  0  0  0  0  0
  -14.8526    1.4402    0.2892 H   0  0  0  0  0  0  0  0  0  0  0  0
  -13.8904    3.5146   -0.1613 H   0  0  0  0  0  0  0  0  0  0  0  0
  -15.4546    4.3204   -0.5048 H   0  0  0  0  0  0  0  0  0  0  0  0
  -14.0746    2.2412   -2.2965 H   0  0  0  0  0  0  0  0  0  0  0  0
  -14.0809    4.0100   -2.5732 H   0  0  0  0  0  0  0  0  0  0  0  0
  -11.4738   -6.1477   -5.3259 H   0  0  0  0  0  0  0  0  0  0  0  0
  -11.2301   -6.5252   -7.0824 H   0  0  0  0  0  0  0  0  0  0  0  0
  -12.4307   -7.4481   -6.0938 H   0  0  0  0  0  0  0  0  0  0  0  0
  -14.1241   -4.3097  -14.0062 H   0  0  0  0  0  0  0  0  0  0  0  0
  -15.2196   -4.8635  -12.6851 H   0  0  0  0  0  0  0  0  0  0  0  0
  -13.4383   -4.7319  -12.4036 H   0  0  0  0  0  0  0  0  0  0  0  0
  -17.0154    0.8041  -14.1510 H   0  0  0  0  0  0  0  0  0  0  0  0
  -17.6892   -0.8474  -14.1914 H   0  0  0  0  0  0  0  0  0  0  0  0
  -17.8747    0.1176  -12.6940 H   0  0  0  0  0  0  0  0  0  0  0  0
  -14.8949    3.5168  -13.1908 H   0  0  0  0  0  0  0  0  0  0  0  0
  -13.4932    2.4252  -13.3751 H   0  0  0  0  0  0  0  0  0  0  0  0
  -14.5266    1.8076  -15.4553 H   0  0  0  0  0  0  0  0  0  0  0  0
  -16.8698    1.2872  -15.6685 H   0  0  0  0  0  0  0  0  0  0  0  0
  -17.1654    1.7816  -13.8868 H   0  0  0  0  0  0  0  0  0  0  0  0
  -17.9761    0.9634   -6.2723 H   0  0  0  0  0  0  0  0  0  0  0  0
  -17.2880   -0.2452   -7.4247 H   0  0  0  0  0  0  0  0  0  0  0  0
  -18.4793    0.9902   -7.9782 H   0  0  0  0  0  0  0  0  0  0  0  0
  -15.6350    4.4054   -6.7840 H   0  0  0  0  0  0  0  0  0  0  0  0
  -15.0134    4.7621   -5.1339 H   0  0  0  0  0  0  0  0  0  0  0  0
  -16.7952    4.5614   -5.4298 H   0  0  0  0  0  0  0  0  0  0  0  0
  -13.3237   -5.5081  -11.2964 H   0  0  0  0  0  0  0  0  0  0  0  0
  -13.2149   -6.9439  -10.1747 H   0  0  0  0  0  0  0  0  0  0  0  0
  -14.3742   -6.9323  -11.5376 H   0  0  0  0  0  0  0  0  0  0  0  0
  -11.5683   -2.0943  -12.5397 H   0  0  0  0  0  0  0  0  0  0  0  0
  -12.6635   -3.5016  -12.3673 H   0  0  0  0  0  0  0  0  0  0  0  0
  -13.3307   -1.7962  -12.4499 H   0  0  0  0  0  0  0  0  0  0  0  0
  -14.4848    0.3099   -0.1622 H   0  0  0  0  0  0  0  0  0  0  0  0
  -14.2071   -0.5685   -1.6976 H   0  0  0  0  0  0  0  0  0  0  0  0
  -14.0947    1.2233   -1.6917 H   0  0  0  0  0  0  0  0  0  0  0  0
  -11.4827   -3.8091   -5.3485 H   0  0  0  0  0  0  0  0  0  0  0  0
  -14.4364    0.3120   -8.7133 H   0  0  0  0  0  0  0  0  0  0  0  0
  -16.5089    1.8463    1.6855 H   0  0  0  0  0  0  0  0  0  0  0  0
  1  2  1  0
  2  3  1  0
  3  4  1  0
  4  5  1  0
  5  6  1  0
  7  8  1  0
  8  9  1  0
  9 10  1  0
 10 11  1  0
 11 12  1  0
 12 13  1  0
 13 14  1  0
 14 15  1  0
 15 16  1  0
 16 17  1  0
 17 18  1  0
 18 19  2  0
 19 20  1  0
 20 21  1  0
 21 22  1  0
 22 23  1  0
 23 24  1  0
 24 25  1  0
 25 26  1  0
 26 27  2  3
 28 27  1  0
 28 29  1  0
 29 30  1  0
 30 31  1  0
 31 32  1  0
 28 33  1  0
 32 33  1  0
 10 34  1  0
 16 35  1  0
 18 36  1  0
 20 37  1  0
 37 38  1  0
 38 39  2  3
 24 40  1  0
 26 41  1  0
  2 45  1  0
  6 45  1  0
  7 45  1  0
  1 46  1  0
 25 46  1  0
  1 47  2  0
  7 48  2  0
  8 49  2  0
  9 50  1  0
 13 50  1  0
  9 51  1  1
 12 52  1  0
 42 52  1  0
 14 53  1  0
 43 53  1  0
 21 54  2  0
 23 55  1  0
 30 56  1  0
 44 56  1  0
 31 57  1  0
  2 58  1  1
  3 59  1  0
  3 60  1  0
  4 61  1  0
  4 62  1  0
  5 63  1  0
  5 64  1  0
  6 65  1  0
  6 66  1  0
 10 67  1  1
 11 68  1  0
 11 69  1  0
 12 70  1  1
 13 71  1  6
 14 72  1  1
 15 73  1  0
 15 74  1  0
 16 75  1  1
 17 76  1  0
 17 77  1  0
 19 78  1  0
 20 79  1  1
 22 80  1  0
 22 81  1  0
 23 82  1  6
 24 83  1  6
 25 84  1  6
 27 85  1  0
 28 86  1  6
 29 87  1  0
 29 88  1  0
 30 89  1  1
 31 90  1  1
 32 91  1  0
 32 92  1  0
 33 93  1  0
 33 94  1  0
 34 95  1  0
 34 96  1  0
 34 97  1  0
 35 98  1  0
 35 99  1  0
 35100  1  0
 36101  1  0
 36102  1  0
 36103  1  0
 37104  1  0
 37105  1  0
 38106  1  0
 39107  1  0
 39108  1  0
 40109  1  0
 40110  1  0
 40111  1  0
 41112  1  0
 41113  1  0
 41114  1  0
 42115  1  0
 42116  1  0
 42117  1  0
 43118  1  0
 43119  1  0
 43120  1  0
 44121  1  0
 44122  1  0
 44123  1  0
 51124  1  0
 55125  1  0
 57126  1  0
M  END
