7LB3_XXS_A_1701
     RDKit          3D

 53 57  0  0  0  0  0  0  0  0999 V2000
   19.9184   14.7377   67.4757 C   0  0  2  0  0  0  0  0  0  0  0  0
   21.2727   13.3806   65.3449 C   0  0  2  0  0  0  0  0  0  0  0  0
   20.8213   15.0302   68.6805 C   0  0  2  0  0  0  0  0  0  0  0  0
   18.2091   18.3686   65.7785 C   0  0  0  0  0  0  0  0  0  0  0  0
   14.4362   17.7885   65.6266 C   0  0  0  0  0  0  0  0  0  0  0  0
   13.9363   19.0889   65.4583 C   0  0  0  0  0  0  0  0  0  0  0  0
   14.8551   20.1311   65.4201 C   0  0  0  0  0  0  0  0  0  0  0  0
   16.7569   21.1931   65.4486 C   0  0  0  0  0  0  0  0  0  0  0  0
   20.0410   21.7379   67.6698 C   0  0  2  0  0  0  0  0  0  0  0  0
   21.3999   20.2941   65.5415 C   0  0  1  0  0  0  0  0  0  0  0  0
   22.5613   20.1509   64.5664 C   0  0  2  0  0  0  0  0  0  0  0  0
   21.3712   21.0335   64.2121 C   0  0  2  0  0  0  0  0  0  0  0  0
   20.4467   19.1414   65.6557 C   0  0  0  0  0  0  0  0  0  0  0  0
   20.9177   17.8474   65.8927 C   0  0  0  0  0  0  0  0  0  0  0  0
   19.9864   16.8161   66.0619 C   0  0  0  0  0  0  0  0  0  0  0  0
   19.8531   13.2260   67.1777 C   0  0  1  0  0  0  0  0  0  0  0  0
   21.5148   14.8785   65.5266 C   0  0  1  0  0  0  0  0  0  0  0  0
   16.7490   18.6336   65.6914 C   0  0  0  0  0  0  0  0  0  0  0  0
   15.8239   17.5610   65.7451 C   0  0  0  0  0  0  0  0  0  0  0  0
   16.2044   19.9239   65.5321 C   0  0  0  0  0  0  0  0  0  0  0  0
   22.3791   22.6496   66.6292 N   0  0  0  0  0  0  0  0  0  0  0  0
   20.4097   15.4599   66.2936 N   0  0  0  0  0  0  0  0  0  0  0  0
   18.6589   17.1048   66.0066 N   0  0  0  0  0  0  0  0  0  0  0  0
   15.7582   22.0926   65.2919 N   0  0  0  0  0  0  0  0  0  0  0  0
   14.6042   21.4396   65.2720 N   0  0  0  0  0  0  0  0  0  0  0  0
   19.1092   19.3707   65.6081 N   0  0  0  0  0  0  0  0  0  0  0  0
   21.0548   12.7544   66.5926 O   0  0  0  0  0  0  0  0  0  0  0  0
   22.4253   20.5702   68.0157 O   0  0  0  0  0  0  0  0  0  0  0  0
   21.6328   21.3302   66.9870 S   0  0  1  0  0  6  0  0  0  0  0  0
   18.8891   15.0770   67.7291 H   0  0  0  0  0  0  0  0  0  0  0  0
   22.1715   12.9287   64.8755 H   0  0  0  0  0  0  0  0  0  0  0  0
   20.4168   13.2063   64.6537 H   0  0  0  0  0  0  0  0  0  0  0  0
   21.2073   16.0699   68.6229 H   0  0  0  0  0  0  0  0  0  0  0  0
   21.6873   14.3339   68.7013 H   0  0  0  0  0  0  0  0  0  0  0  0
   20.2483   14.9183   69.6257 H   0  0  0  0  0  0  0  0  0  0  0  0
   13.7510   16.9518   65.6586 H   0  0  0  0  0  0  0  0  0  0  0  0
   12.8747   19.2717   65.3549 H   0  0  0  0  0  0  0  0  0  0  0  0
   17.8001   21.4664   65.4903 H   0  0  0  0  0  0  0  0  0  0  0  0
   19.2712   21.0408   67.2730 H   0  0  0  0  0  0  0  0  0  0  0  0
   19.7740   22.7812   67.3917 H   0  0  0  0  0  0  0  0  0  0  0  0
   20.0772   21.6482   68.7773 H   0  0  0  0  0  0  0  0  0  0  0  0
   22.5953   19.2045   63.9860 H   0  0  0  0  0  0  0  0  0  0  0  0
   23.4815   20.7208   64.8062 H   0  0  0  0  0  0  0  0  0  0  0  0
   21.6055   22.1198   64.2483 H   0  0  0  0  0  0  0  0  0  0  0  0
   20.7248   20.5960   63.4236 H   0  0  0  0  0  0  0  0  0  0  0  0
   21.9819   17.6552   65.9649 H   0  0  0  0  0  0  0  0  0  0  0  0
   19.6863   12.6718   68.1294 H   0  0  0  0  0  0  0  0  0  0  0  0
   18.9797   13.0018   66.5183 H   0  0  0  0  0  0  0  0  0  0  0  0
   22.4727   15.0469   66.0640 H   0  0  0  0  0  0  0  0  0  0  0  0
   21.5760   15.3503   64.5206 H   0  0  0  0  0  0  0  0  0  0  0  0
   16.1669   16.5418   65.8657 H   0  0  0  0  0  0  0  0  0  0  0  0
   23.2752   22.8854   67.0797 H   0  0  0  0  0  0  0  0  0  0  0  0
   13.6683   21.8906   65.1558 H   0  0  0  0  0  0  0  0  0  0  0  0
  1  3  1  0
  5  6  2  0
  6  7  1  0
 10 11  1  0
 11 12  1  0
 10 12  1  0
 10 13  1  1
 13 14  2  0
 14 15  1  0
  1 16  1  0
  2 17  1  0
  4 18  1  0
 18 19  2  0
  5 19  1  0
  8 20  1  0
 18 20  1  0
  7 20  2  0
 17 22  1  0
  1 22  1  0
 15 22  1  0
 15 23  2  0
  4 23  1  0
  8 24  2  0
 24 25  1  0
  7 25  1  0
 13 26  1  0
  4 26  2  0
  2 27  1  0
 16 27  1  0
 29 10  1  6
 29  9  1  0
 21 29  2  0
 28 29  2  0
  1 30  1  1
  2 31  1  6
  2 32  1  0
  3 33  1  6
  3 34  1  0
  3 35  1  0
  5 36  1  0
  6 37  1  0
  8 38  1  0
  9 39  1  6
  9 40  1  0
  9 41  1  0
 11 42  1  6
 11 43  1  0
 12 44  1  1
 12 45  1  0
 14 46  1  0
 16 47  1  1
 16 48  1  0
 17 49  1  1
 17 50  1  0
 19 51  1  0
 21 52  1  0
 25 53  1  0
M  END
