7SED_8VD_A_401
     RDKit          3D

 17 18  0  0  0  0  0  0  0  0999 V2000
   36.3527   27.1529   -3.1782 C   0  0  0  0  0  0  0  0  0  0  0  0
   36.3449   28.1064   -8.1797 N   0  0  0  0  0  0  0  0  0  0  0  0
   35.2124   28.0735   -5.9753 C   0  0  0  0  0  0  0  0  0  0  0  0
   37.4712   29.0447   -6.2126 C   0  0  0  0  0  0  0  0  0  0  0  0
   36.8638   28.0686   -4.1308 N   0  0  0  0  0  0  0  0  0  0  0  0
   36.0420   26.7749    0.5668 C   0  0  1  0  0  0  0  0  0  0  0  0
   35.9296   26.4792   -0.8834 C   0  0  0  0  0  0  0  0  0  0  0  0
   36.4299   27.3777   -1.8013 C   0  0  0  0  0  0  0  0  0  0  0  0
   36.6479   27.9677   -5.5324 C   0  0  1  0  0  0  0  0  0  0  0  0
   37.4312   28.9140   -7.7155 C   0  0  0  0  0  0  0  0  0  0  0  0
   35.1296   28.2363   -7.4520 C   0  0  0  0  0  0  0  0  0  0  0  0
   35.2589   25.1044   -2.6625 C   0  0  0  0  0  0  0  0  0  0  0  0
   35.2222   25.9705    1.3332 F   0  0  0  0  0  0  0  0  0  0  0  0
   37.3479   26.6271    0.9459 F   0  0  0  0  0  0  0  0  0  0  0  0
   35.7351   28.1256    0.7461 F   0  0  0  0  0  0  0  0  0  0  0  0
   35.7534   25.9943   -3.5346 N   0  0  0  0  0  0  0  0  0  0  0  0
   35.3521   25.3555   -1.3528 N   0  0  0  0  0  0  0  0  0  0  0  0
  1  5  1  0
  6  7  1  0
  7  8  2  0
  1  8  1  0
  9  5  1  1
  3  9  1  0
  4  9  1  0
  4 10  1  0
  2 10  1  0
  3 11  1  0
  2 11  1  0
  6 13  1  1
  6 14  1  0
  6 15  1  0
 12 16  1  0
  1 16  2  0
 12 17  2  0
  7 17  1  0
M  END
$$$$
