7QE4_NGA_BBB_404
     RDKit          3D

 15 15  0  0  0  0  0  0  0  0999 V2000
   56.9063    1.5775  138.4989 C   0  0  2  0  0  0  0  0  0  0  0  0
   55.7299    2.1452  137.7869 C   0  0  1  0  0  0  0  0  0  0  0  0
   54.9545    1.1940  136.9576 C   0  0  2  0  0  0  0  0  0  0  0  0
   54.8342   -0.1158  137.6517 C   0  0  2  0  0  0  0  0  0  0  0  0
   56.1752   -0.5997  138.0948 C   0  0  1  0  0  0  0  0  0  0  0  0
   57.0147   -1.2054  136.9974 C   0  0  0  0  0  0  0  0  0  0  0  0
   54.4977    4.1694  138.5575 C   0  0  0  0  0  0  0  0  0  0  0  0
   53.7256    4.9105  139.6043 C   0  0  0  0  0  0  0  0  0  0  0  0
   54.8349    2.7893  138.7573 N   0  0  0  0  0  0  0  0  0  0  0  0
   58.0797    1.8080  137.7576 O   0  0  0  0  0  0  0  0  0  0  0  0
   55.3581    1.1075  135.6286 O   0  0  0  0  0  0  0  0  0  0  0  0
   54.1372   -1.0738  136.9428 O   0  0  0  0  0  0  0  0  0  0  0  0
   56.8521    0.2801  138.8615 O   0  0  0  0  0  0  0  0  0  0  0  0
   58.0535   -1.9901  137.4364 O   0  0  0  0  0  0  0  0  0  0  0  0
   54.8403    4.7888  137.5036 O   0  0  0  0  0  0  0  0  0  0  0  0
  1  2  1  0
  2  3  1  0
  3  4  1  0
  4  5  1  0
  5  6  1  0
  8  7  1  1
  2  9  1  1
  7  9  1  0
  1 10  1  6
  3 11  1  6
  4 12  1  6
  1 13  1  0
  5 13  1  6
  6 14  1  6
  7 15  2  0
M  END
$$$$
