@<TRIPOS>MOLECULE
1UOU_CMU_A_1481
 27 28 0 0 0
SMALL
GASTEIGER

@<TRIPOS>ATOM
      1 CL         -3.2792    0.0185   -0.8009 Cl      1  UNL1       -0.0760
      2 C          -1.8210    0.1589   -1.7866 C.ar    1  UNL1        0.1281
      3 C          -0.6675   -0.6108   -1.5340 C.ar    1  UNL1        0.0836
      4 C          -0.5933   -1.5745   -0.3748 C.3     1  UNL1        0.1219
      5 N           0.0045   -0.9222    0.7907 N.pl3   1  UNL1       -0.2192
      6 C          -0.7093   -0.0153    1.6729 C.3     1  UNL1        0.0812
      7 C           0.3177    0.4553    2.7198 C.3     1  UNL1       -0.0058
      8 C           1.7038    0.0242    2.2187 C.3     1  UNL1        0.0536
      9 C           1.3894   -0.8688    1.0823 C.2     1  UNL1        0.2806
     10 N           2.2799   -1.5257    0.4103 N.2     1  UNL1       -0.1038
     11 N           0.4297   -0.4462   -2.3275 N.ar    1  UNL1       -0.3067
     12 C           0.4267    0.4348   -3.3636 C.ar    1  UNL1        0.3271
     13 O           1.4538    0.5632   -4.0829 O.2     1  UNL1       -0.2467
     14 N          -0.6807    1.1783   -3.6243 N.ar    1  UNL1       -0.2739
     15 C          -1.7978    1.0585   -2.8592 C.ar    1  UNL1        0.2728
     16 O          -2.8112    1.7618   -3.1198 O.2     1  UNL1       -0.2661
     17 H          -1.5951   -1.9699   -0.1082 H       1  UNL1        0.0793
     18 H           0.0133   -2.4593   -0.6644 H       1  UNL1        0.0793
     19 H          -1.0810    0.8559    1.0919 H       1  UNL1        0.0726
     20 H          -1.5624   -0.5387    2.1559 H       1  UNL1        0.0726
     21 H           0.1051   -0.0335    3.6959 H       1  UNL1        0.0307
     22 H           0.2703    1.5579    2.8537 H       1  UNL1        0.0307
     23 H           2.2661   -0.5213    3.0069 H       1  UNL1        0.0388
     24 H           2.2845    0.9012    1.8601 H       1  UNL1        0.0388
     25 H           3.2949   -1.4596    0.6472 H       1  UNL1        0.3629
     26 H           1.2931   -1.0060   -2.1432 H       1  UNL1        0.1702
     27 H          -0.6723    1.8530   -4.4234 H       1  UNL1        0.1735
@<TRIPOS>BOND
     1     1     2    1
     2     2     3   ar
     3     3     4    1
     4     4     5    1
     5     5     6    1
     6     6     7    1
     7     7     8    1
     8     5     9    1
     9     8     9    1
    10     9    10    2
    11     3    11   ar
    12    11    12   ar
    13    12    13    2
    14    12    14   ar
    15     2    15   ar
    16    14    15   ar
    17    15    16    2
    18     4    17    1
    19     4    18    1
    20     6    19    1
    21     6    20    1
    22     7    21    1
    23     7    22    1
    24     8    23    1
    25     8    24    1
    26    10    25    1
    27    11    26    1
    28    14    27    1
