1OPK_P16_A_2
     RDKit          3D

 29 32  0  0  0  0  0  0  0  0999 V2000
   44.5915   15.3509  -11.2230 O   0  0  0  0  0  0  0  0  0  0  0  0
   44.8769   16.2249  -12.2687 C   0  0  0  0  0  0  0  0  0  0  0  0
   46.1633   16.9450  -12.0429 C   0  0  0  0  0  0  0  0  0  0  0  0
   47.3269   16.3256  -12.4218 C   0  0  0  0  0  0  0  0  0  0  0  0
   48.5040   16.9986  -12.2085 C   0  0  0  0  0  0  0  0  0  0  0  0
   48.5010   18.2622  -11.6282 C   0  0  0  0  0  0  0  0  0  0  0  0
   47.3663   18.9001  -11.2431 C   0  0  0  0  0  0  0  0  0  0  0  0
   47.2744   20.1752  -10.6499 N   0  0  0  0  0  0  0  0  0  0  0  0
   46.1955   20.6698   -9.8758 C   0  0  0  0  0  0  0  0  0  0  0  0
   46.2558   21.9459   -9.4525 N   0  0  0  0  0  0  0  0  0  0  0  0
   45.3139   22.5266   -8.7235 C   0  0  0  0  0  0  0  0  0  0  0  0
   44.1980   21.8041   -8.3648 C   0  0  0  0  0  0  0  0  0  0  0  0
   43.2182   22.4043   -7.6079 C   0  0  0  0  0  0  0  0  0  0  0  0
   42.1077   21.6637   -7.2586 C   0  0  0  0  0  0  0  0  0  0  0  0
   42.0504   20.3559   -7.6949 C   0  0  0  0  0  0  0  0  0  0  0  0
   41.0388   19.6870   -7.3746 O   0  0  0  0  0  0  0  0  0  0  0  0
   43.0319   19.7937   -8.4391 N   0  0  0  0  0  0  0  0  0  0  0  0
   44.1418   20.5003   -8.8003 C   0  0  0  0  0  0  0  0  0  0  0  0
   45.1168   19.9613   -9.5326 N   0  0  0  0  0  0  0  0  0  0  0  0
   42.8775   18.4190   -8.8458 C   0  0  0  0  0  0  0  0  0  0  0  0
   41.0867   22.3001   -6.4658 C   0  0  0  0  0  0  0  0  0  0  0  0
   41.1876   22.4230   -5.0932 C   0  0  0  0  0  0  0  0  0  0  0  0
   42.6087   21.7846   -4.2692 Cl  0  0  0  0  0  0  0  0  0  0  0  0
   40.2226   23.0251   -4.3368 C   0  0  0  0  0  0  0  0  0  0  0  0
   39.0931   23.5364   -4.9607 C   0  0  0  0  0  0  0  0  0  0  0  0
   38.9879   23.4171   -6.3224 C   0  0  0  0  0  0  0  0  0  0  0  0
   39.9670   22.8091   -7.0678 C   0  0  0  0  0  0  0  0  0  0  0  0
   39.7819   22.6848   -8.7950 Cl  0  0  0  0  0  0  0  0  0  0  0  0
   46.1682   18.1939  -11.4699 C   0  0  0  0  0  0  0  0  0  0  0  0
  2  1  1  6
  2  3  1  0
  3  4  2  0
  4  5  1  0
  5  6  2  0
  6  7  1  0
  7  8  1  0
  8  9  1  0
  9 10  2  0
 10 11  1  0
 11 12  2  0
 12 13  1  0
 13 14  2  0
 14 15  1  0
 15 16  2  0
 15 17  1  0
 12 18  1  0
 17 18  1  0
  9 19  1  0
 18 19  2  0
 20 17  1  1
 14 21  1  0
 21 22  2  0
 22 23  1  0
 22 24  1  0
 24 25  2  0
 25 26  1  0
 21 27  1  0
 26 27  2  0
 27 28  1  0
  3 29  1  0
  7 29  2  0
M  END
$$$$
