1KE5_LS1_A_299
     RDKit          3D

 23 25  0  0  0  0  0  0  0  0999 V2000
   -8.8539   65.1744   44.4609 N   0  0  0  0  0  0  0  0  0  0  0  0
   -9.3998   66.5022   44.4167 C   0  0  0  0  0  0  0  0  0  0  0  0
   -9.9655   66.7485   45.7292 C   0  0  0  0  0  0  0  0  0  0  0  0
  -10.0762   65.2670   47.8253 C   0  0  0  0  0  0  0  0  0  0  0  0
   -9.7739   64.0610   48.4154 C   0  0  0  0  0  0  0  0  0  0  0  0
   -9.1108   63.1177   47.6639 C   0  0  0  0  0  0  0  0  0  0  0  0
   -8.7694   63.3980   46.3562 C   0  0  0  0  0  0  0  0  0  0  0  0
   -9.0634   64.6032   45.7436 C   0  0  0  0  0  0  0  0  0  0  0  0
   -9.7282   65.5439   46.5033 C   0  0  0  0  0  0  0  0  0  0  0  0
   -9.3807   67.2832   43.4228 O   0  0  0  0  0  0  0  0  0  0  0  0
  -10.5714   67.8274   46.1529 C   0  0  0  0  0  0  0  0  0  0  0  0
  -10.8840   68.9241   45.3009 N   0  0  0  0  0  0  0  0  0  0  0  0
  -11.4206   70.0875   45.9478 C   0  0  0  0  0  0  0  0  0  0  0  0
  -11.9874   70.0511   47.1970 C   0  0  0  0  0  0  0  0  0  0  0  0
  -12.4939   71.2082   47.7794 C   0  0  0  0  0  0  0  0  0  0  0  0
  -12.4182   72.3924   47.0835 C   0  0  0  0  0  0  0  0  0  0  0  0
  -11.8422   72.4090   45.8231 C   0  0  0  0  0  0  0  0  0  0  0  0
  -11.3347   71.2667   45.2318 C   0  0  0  0  0  0  0  0  0  0  0  0
  -13.0156   73.9126   47.7006 S   0  0  2  0  0  0  0  0  0  0  0  0
  -14.3894   73.6330   48.2911 O   0  0  0  0  0  0  0  0  0  0  0  0
  -13.2245   74.9159   46.6128 O   0  0  0  0  0  0  0  0  0  0  0  0
  -11.9298   74.4638   48.9257 N   0  0  0  0  0  0  0  0  0  0  0  0
  -10.7121   74.8646   48.2500 C   0  0  0  0  0  0  0  0  0  0  0  0
  1  2  1  0
  2  3  1  0
  4  5  1  0
  5  6  2  0
  6  7  1  0
  1  8  1  0
  7  8  2  0
  3  9  1  0
  4  9  2  0
  8  9  1  0
  2 10  2  0
  3 11  2  0
 11 12  1  0
 12 13  1  0
 13 14  2  0
 14 15  1  0
 15 16  2  0
 16 17  1  0
 13 18  1  0
 17 18  2  0
 16 19  1  0
 19 20  2  0
 19 21  2  0
 19 22  1  1
 22 23  1  0
M  END
$$$$
