1KE5_LS1_A_299
     RDKit          3D

 23 25  0  0  0  0  0  0  0  0999 V2000
   -6.9766   49.8821   42.3364 N   0  0  0  0  0  0  0  0  0  0  0  0
   -7.1719   48.7470   41.4782 C   0  0  0  0  0  0  0  0  0  0  0  0
   -8.1074   49.1726   40.4549 C   0  0  0  0  0  0  0  0  0  0  0  0
   -9.2833   51.4249   40.0734 C   0  0  0  0  0  0  0  0  0  0  0  0
   -9.4805   52.7206   40.4930 C   0  0  0  0  0  0  0  0  0  0  0  0
   -8.8087   53.1500   41.6150 C   0  0  0  0  0  0  0  0  0  0  0  0
   -7.9658   52.2850   42.2832 C   0  0  0  0  0  0  0  0  0  0  0  0
   -7.7531   50.9790   41.8788 C   0  0  0  0  0  0  0  0  0  0  0  0
   -8.4300   50.5560   40.7533 C   0  0  0  0  0  0  0  0  0  0  0  0
   -6.6279   47.6132   41.6066 O   0  0  0  0  0  0  0  0  0  0  0  0
   -8.5797   48.4714   39.4570 C   0  0  0  0  0  0  0  0  0  0  0  0
   -8.2269   47.1107   39.2325 N   0  0  0  0  0  0  0  0  0  0  0  0
   -8.6640   46.5470   37.9870 C   0  0  0  0  0  0  0  0  0  0  0  0
   -8.5156   45.2184   37.6772 C   0  0  0  0  0  0  0  0  0  0  0  0
   -8.9561   44.7222   36.4548 C   0  0  0  0  0  0  0  0  0  0  0  0
   -9.5441   45.5845   35.5587 C   0  0  0  0  0  0  0  0  0  0  0  0
   -9.6851   46.9230   35.8897 C   0  0  0  0  0  0  0  0  0  0  0  0
   -9.2519   47.4301   37.1010 C   0  0  0  0  0  0  0  0  0  0  0  0
  -10.1386   45.0898   33.9933 S   0  0  2  0  0  0  0  0  0  0  0  0
   -9.4693   45.9930   32.9682 O   0  0  0  0  0  0  0  0  0  0  0  0
  -11.6090   45.3177   33.8544 O   0  0  0  0  0  0  0  0  0  0  0  0
   -9.6853   43.4427   33.7378 N   0  0  0  0  0  0  0  0  0  0  0  0
  -10.7972   42.6320   34.1921 C   0  0  0  0  0  0  0  0  0  0  0  0
  1  2  1  0
  2  3  1  0
  4  5  1  0
  5  6  2  0
  6  7  1  0
  1  8  1  0
  7  8  2  0
  3  9  1  0
  4  9  2  0
  8  9  1  0
  2 10  2  0
  3 11  2  0
 11 12  1  0
 12 13  1  0
 13 14  2  0
 14 15  1  0
 15 16  2  0
 16 17  1  0
 13 18  1  0
 17 18  2  0
 16 19  1  0
 19 20  2  0
 19 21  2  0
 19 22  1  6
 22 23  1  0
M  END
$$$$
