1KE5_LS1_A_299
     RDKit          3D

 23 25  0  0  0  0  0  0  0  0999 V2000
   -6.8347   49.8324   42.3388 N   0  0  0  0  0  0  0  0  0  0  0  0
   -7.1330   48.8228   41.3617 C   0  0  0  0  0  0  0  0  0  0  0  0
   -8.1587   49.3841   40.5036 C   0  0  0  0  0  0  0  0  0  0  0  0
   -9.3298   51.6706   40.5451 C   0  0  0  0  0  0  0  0  0  0  0  0
   -9.4631   52.8991   41.1508 C   0  0  0  0  0  0  0  0  0  0  0  0
   -8.6760   53.1726   42.2463 C   0  0  0  0  0  0  0  0  0  0  0  0
   -7.7849   52.2236   42.7053 C   0  0  0  0  0  0  0  0  0  0  0  0
   -7.6348   50.9829   42.1117 C   0  0  0  0  0  0  0  0  0  0  0  0
   -8.4273   50.7161   41.0140 C   0  0  0  0  0  0  0  0  0  0  0  0
   -6.5974   47.6805   41.2828 O   0  0  0  0  0  0  0  0  0  0  0  0
   -8.7394   48.8241   39.4741 C   0  0  0  0  0  0  0  0  0  0  0  0
   -8.1799   47.7147   38.7794 N   0  0  0  0  0  0  0  0  0  0  0  0
   -9.0315   47.0889   37.8083 C   0  0  0  0  0  0  0  0  0  0  0  0
   -9.4406   45.7828   37.9071 C   0  0  0  0  0  0  0  0  0  0  0  0
  -10.2663   45.2235   36.9375 C   0  0  0  0  0  0  0  0  0  0  0  0
  -10.6678   46.0004   35.8756 C   0  0  0  0  0  0  0  0  0  0  0  0
  -10.2440   47.3173   35.7933 C   0  0  0  0  0  0  0  0  0  0  0  0
   -9.4233   47.8865   36.7497 C   0  0  0  0  0  0  0  0  0  0  0  0
  -11.7016   45.4203   34.5937 S   0  0  2  0  0  0  0  0  0  0  0  0
  -12.8747   46.3854   34.5103 O   0  0  0  0  0  0  0  0  0  0  0  0
  -12.2843   44.0802   34.9065 O   0  0  0  0  0  0  0  0  0  0  0  0
  -10.7986   45.4350   33.1213 N   0  0  0  0  0  0  0  0  0  0  0  0
  -10.1304   44.1521   33.0324 C   0  0  0  0  0  0  0  0  0  0  0  0
  1  2  1  0
  2  3  1  0
  4  5  1  0
  5  6  2  0
  6  7  1  0
  1  8  1  0
  7  8  2  0
  3  9  1  0
  4  9  2  0
  8  9  1  0
  2 10  2  0
  3 11  2  0
 11 12  1  0
 12 13  1  0
 13 14  2  0
 14 15  1  0
 15 16  2  0
 16 17  1  0
 13 18  1  0
 17 18  2  0
 16 19  1  0
 19 20  2  0
 19 21  2  0
 19 22  1  6
 22 23  1  0
M  END
$$$$
