1KE5_LS1_A_299
     RDKit          3D

 23 25  0  0  0  0  0  0  0  0999 V2000
   11.7842   54.8174   51.2659 N   0  0  0  0  0  0  0  0  0  0  0  0
   11.7818   53.4677   50.7744 C   0  0  0  0  0  0  0  0  0  0  0  0
   10.7407   52.7742   51.5083 C   0  0  0  0  0  0  0  0  0  0  0  0
    9.1308   53.5932   53.3354 C   0  0  0  0  0  0  0  0  0  0  0  0
    8.6997   54.6343   54.1254 C   0  0  0  0  0  0  0  0  0  0  0  0
    9.3182   55.8559   53.9855 C   0  0  0  0  0  0  0  0  0  0  0  0
   10.3407   56.0067   53.0706 C   0  0  0  0  0  0  0  0  0  0  0  0
   10.7896   54.9739   52.2667 C   0  0  0  0  0  0  0  0  0  0  0  0
   10.1646   53.7524   52.4127 C   0  0  0  0  0  0  0  0  0  0  0  0
   12.5430   52.9986   49.8808 O   0  0  0  0  0  0  0  0  0  0  0  0
   10.3770   51.5229   51.3966 C   0  0  0  0  0  0  0  0  0  0  0  0
   10.9596   50.6292   50.4541 N   0  0  0  0  0  0  0  0  0  0  0  0
   10.4983   49.2712   50.5096 C   0  0  0  0  0  0  0  0  0  0  0  0
    9.2864   48.8743   50.0029 C   0  0  0  0  0  0  0  0  0  0  0  0
    8.8860   47.5447   50.0829 C   0  0  0  0  0  0  0  0  0  0  0  0
    9.7244   46.6312   50.6786 C   0  0  0  0  0  0  0  0  0  0  0  0
   10.9444   47.0512   51.1844 C   0  0  0  0  0  0  0  0  0  0  0  0
   11.3555   48.3696   51.1119 C   0  0  0  0  0  0  0  0  0  0  0  0
    9.3414   44.9356   50.8427 S   0  0  2  0  0  0  0  0  0  0  0  0
   10.4012   44.1725   50.0622 O   0  0  0  0  0  0  0  0  0  0  0  0
    8.0305   44.5933   50.2120 O   0  0  0  0  0  0  0  0  0  0  0  0
    9.4098   44.5248   52.5191 N   0  0  0  0  0  0  0  0  0  0  0  0
    8.1244   44.8811   53.0855 C   0  0  0  0  0  0  0  0  0  0  0  0
  1  2  1  0
  2  3  1  0
  4  5  1  0
  5  6  2  0
  6  7  1  0
  1  8  1  0
  7  8  2  0
  3  9  1  0
  4  9  2  0
  8  9  1  0
  2 10  2  0
  3 11  2  0
 11 12  1  0
 12 13  1  0
 13 14  2  0
 14 15  1  0
 15 16  2  0
 16 17  1  0
 13 18  1  0
 17 18  2  0
 16 19  1  0
 19 20  2  0
 19 21  2  0
 19 22  1  1
 22 23  1  0
M  END
$$$$
