1KE5_LS1_A_299
     RDKit          3D

 23 25  0  0  0  0  0  0  0  0999 V2000
   -9.6133   52.4735   40.7690 N   0  0  0  0  0  0  0  0  0  0  0  0
  -10.1159   51.7920   39.6089 C   0  0  0  0  0  0  0  0  0  0  0  0
   -9.4542   50.5017   39.5821 C   0  0  0  0  0  0  0  0  0  0  0  0
   -7.7234   49.4585   41.1685 C   0  0  0  0  0  0  0  0  0  0  0  0
   -6.9524   49.5928   42.3005 C   0  0  0  0  0  0  0  0  0  0  0  0
   -7.0428   50.7669   43.0130 C   0  0  0  0  0  0  0  0  0  0  0  0
   -7.8911   51.7672   42.5829 C   0  0  0  0  0  0  0  0  0  0  0  0
   -8.6747   51.6531   41.4484 C   0  0  0  0  0  0  0  0  0  0  0  0
   -8.5787   50.4732   40.7394 C   0  0  0  0  0  0  0  0  0  0  0  0
  -10.9648   52.2440   38.7884 O   0  0  0  0  0  0  0  0  0  0  0  0
   -9.5995   49.5429   38.7045 C   0  0  0  0  0  0  0  0  0  0  0  0
  -10.5409   49.6061   37.6386 N   0  0  0  0  0  0  0  0  0  0  0  0
  -10.4933   48.5254   36.6952 C   0  0  0  0  0  0  0  0  0  0  0  0
  -11.4286   48.3586   35.7051 C   0  0  0  0  0  0  0  0  0  0  0  0
  -11.3370   47.2930   34.8159 C   0  0  0  0  0  0  0  0  0  0  0  0
  -10.2928   46.4066   34.9437 C   0  0  0  0  0  0  0  0  0  0  0  0
   -9.3581   46.5918   35.9502 C   0  0  0  0  0  0  0  0  0  0  0  0
   -9.4366   47.6465   36.8411 C   0  0  0  0  0  0  0  0  0  0  0  0
  -10.0634   45.0299   33.8946 S   0  0  2  0  0  0  0  0  0  0  0  0
   -8.6406   45.1195   33.3636 O   0  0  0  0  0  0  0  0  0  0  0  0
  -10.9594   45.0803   32.6996 O   0  0  0  0  0  0  0  0  0  0  0  0
  -10.2713   43.5941   34.8321 N   0  0  0  0  0  0  0  0  0  0  0  0
   -9.0237   43.3748   35.5359 C   0  0  0  0  0  0  0  0  0  0  0  0
  1  2  1  0
  2  3  1  0
  4  5  1  0
  5  6  2  0
  6  7  1  0
  1  8  1  0
  7  8  2  0
  3  9  1  0
  4  9  2  0
  8  9  1  0
  2 10  2  0
  3 11  2  0
 11 12  1  0
 12 13  1  0
 13 14  2  0
 14 15  1  0
 15 16  2  0
 16 17  1  0
 13 18  1  0
 17 18  2  0
 16 19  1  0
 19 20  2  0
 19 21  2  0
 19 22  1  1
 22 23  1  0
M  END
$$$$
