1KE5_LS1_A_299
     RDKit          3D

 23 25  0  0  0  0  0  0  0  0999 V2000
   -9.5698   52.6607   40.6533 N   0  0  0  0  0  0  0  0  0  0  0  0
   -9.9993   51.9731   39.4676 C   0  0  0  0  0  0  0  0  0  0  0  0
   -9.3586   50.6724   39.5025 C   0  0  0  0  0  0  0  0  0  0  0  0
   -7.7629   49.6217   41.2203 C   0  0  0  0  0  0  0  0  0  0  0  0
   -7.0728   49.7577   42.4031 C   0  0  0  0  0  0  0  0  0  0  0  0
   -7.1946   50.9417   43.0944 C   0  0  0  0  0  0  0  0  0  0  0  0
   -7.9936   51.9497   42.5937 C   0  0  0  0  0  0  0  0  0  0  0  0
   -8.6958   51.8341   41.4071 C   0  0  0  0  0  0  0  0  0  0  0  0
   -8.5686   50.6444   40.7199 C   0  0  0  0  0  0  0  0  0  0  0  0
  -10.7798   52.4282   38.5835 O   0  0  0  0  0  0  0  0  0  0  0  0
   -9.4563   49.7054   38.6273 C   0  0  0  0  0  0  0  0  0  0  0  0
  -10.2948   49.7829   37.4796 N   0  0  0  0  0  0  0  0  0  0  0  0
  -10.2670   48.6452   36.6049 C   0  0  0  0  0  0  0  0  0  0  0  0
  -11.3125   48.3130   35.7805 C   0  0  0  0  0  0  0  0  0  0  0  0
  -11.2351   47.1987   34.9518 C   0  0  0  0  0  0  0  0  0  0  0  0
  -10.0927   46.4326   34.9704 C   0  0  0  0  0  0  0  0  0  0  0  0
   -9.0475   46.7842   35.8098 C   0  0  0  0  0  0  0  0  0  0  0  0
   -9.1104   47.8891   36.6389 C   0  0  0  0  0  0  0  0  0  0  0  0
   -9.8691   45.0114   33.9810 S   0  0  2  0  0  0  0  0  0  0  0  0
   -8.4480   44.5280   34.2285 O   0  0  0  0  0  0  0  0  0  0  0  0
   -9.9560   45.3245   32.5224 O   0  0  0  0  0  0  0  0  0  0  0  0
  -11.0118   43.8172   34.4828 N   0  0  0  0  0  0  0  0  0  0  0  0
  -11.5202   43.1975   33.2755 C   0  0  0  0  0  0  0  0  0  0  0  0
  1  2  1  0
  2  3  1  0
  4  5  1  0
  5  6  2  0
  6  7  1  0
  1  8  1  0
  7  8  2  0
  3  9  1  0
  4  9  2  0
  8  9  1  0
  2 10  2  0
  3 11  2  0
 11 12  1  0
 12 13  1  0
 13 14  2  0
 14 15  1  0
 15 16  2  0
 16 17  1  0
 13 18  1  0
 17 18  2  0
 16 19  1  0
 19 20  2  0
 19 21  2  0
 19 22  1  1
 22 23  1  0
M  END
$$$$
