@<TRIPOS>MOLECULE
1T9B_1CS_B_1695
 35 36 0 0 0
SMALL
GASTEIGER

@<TRIPOS>ATOM
      1 C          -2.3046   -2.7852    2.2159 C.3     1  UNL1        0.0819
      2 O          -1.3063   -2.6903    3.2253 O.3     1  UNL1       -0.4656
      3 C          -0.0466   -2.1336    2.9903 C.ar    1  UNL1        0.3223
      4 N           0.8561   -2.0745    4.0010 N.ar    1  UNL1       -0.1802
      5 C           2.0812   -1.5279    3.7918 C.ar    1  UNL1        0.1349
      6 C           3.0851   -1.4987    4.8954 C.3     1  UNL1       -0.0043
      7 N           2.4108   -1.0608    2.5601 N.ar    1  UNL1       -0.1993
      8 C           1.5141   -1.1171    1.5417 C.ar    1  UNL1        0.2288
      9 N           1.8778   -0.6056    0.2504 N.am    1  UNL1       -0.2369
     10 C           1.0281   -0.6408   -0.9074 C.2     1  UNL1        0.3253
     11 O          -0.1004   -1.2015   -0.8594 O.2     1  UNL1       -0.2508
     12 N           1.4708   -0.0362   -2.1269 N.am    1  UNL1       -0.1690
     13 S           0.4672    0.0109   -3.5382 S.O2    1  UNL1        0.0770
     14 O           1.1519    0.8040   -4.6154 O.2     1  UNL1       -0.1498
     15 O           0.2565   -1.3923   -4.0347 O.2     1  UNL1       -0.1498
     16 C          -1.0766    0.7787   -3.1489 C.ar    1  UNL1        0.1268
     17 C          -2.2713    0.0638   -3.3335 C.ar    1  UNL1       -0.0336
     18 C          -3.5010    0.6474   -3.0185 C.ar    1  UNL1       -0.0598
     19 C          -3.5499    1.9488   -2.5164 C.ar    1  UNL1       -0.0603
     20 C          -2.3688    2.6697   -2.3279 C.ar    1  UNL1       -0.0415
     21 C          -1.1308    2.0941   -2.6402 C.ar    1  UNL1        0.0675
     22 N           0.2851   -1.6527    1.7632 N.ar    1  UNL1       -0.1609
     23 CL          0.3232    3.0512   -2.3781 Cl      1  UNL1       -0.0815
     24 H          -3.2115   -3.2600    2.6433 H       1  UNL1        0.0661
     25 H          -1.9356   -3.4076    1.3732 H       1  UNL1        0.0661
     26 H          -2.5692   -1.7719    1.8459 H       1  UNL1        0.0661
     27 H           2.5730   -1.4102    5.8768 H       1  UNL1        0.0308
     28 H           3.7664   -0.6307    4.7705 H       1  UNL1        0.0308
     29 H           3.6804   -2.4352    4.8778 H       1  UNL1        0.0308
     30 H           2.8229   -0.1714    0.1500 H       1  UNL1        0.1593
     31 H           2.4117    0.4143   -2.1693 H       1  UNL1        0.1781
     32 H          -2.2555   -0.9473   -3.7185 H       1  UNL1        0.0638
     33 H          -4.4172    0.0894   -3.1630 H       1  UNL1        0.0618
     34 H          -4.5035    2.3990   -2.2726 H       1  UNL1        0.0618
     35 H          -2.4167    3.6783   -1.9372 H       1  UNL1        0.0633
@<TRIPOS>BOND
     1     1     2    1
     2     2     3    1
     3     3     4   ar
     4     4     5   ar
     5     5     6    1
     6     5     7   ar
     7     7     8   ar
     8     8     9    1
     9     9    10   am
    10    10    11    2
    11    10    12   am
    12    12    13    1
    13    13    14    2
    14    13    15    2
    15    13    16    1
    16    16    17   ar
    17    17    18   ar
    18    18    19   ar
    19    19    20   ar
    20    16    21   ar
    21    20    21   ar
    22     3    22   ar
    23     8    22   ar
    24    21    23    1
    25     1    24    1
    26     1    25    1
    27     1    26    1
    28     6    27    1
    29     6    28    1
    30     6    29    1
    31     9    30    1
    32    12    31    1
    33    17    32    1
    34    18    33    1
    35    19    34    1
    36    20    35    1
