@<TRIPOS>MOLECULE
1T9B_1CS_B_1695
 35 36 0 0 0
SMALL
GASTEIGER

@<TRIPOS>ATOM
      1 C          -5.6700   52.5360  118.7470 C.3     1  UNL1        0.0819
      2 O          -6.7340   52.1970  119.6030 O.3     1  UNL1       -0.4656
      3 C          -6.7480   52.6780  120.9590 C.ar    1  UNL1        0.3223
      4 N          -5.6720   53.4900  121.3960 N.ar    1  UNL1       -0.1802
      5 C          -5.7020   53.9620  122.7430 C.ar    1  UNL1        0.1349
      6 C          -4.6130   54.7740  123.1810 C.3     1  UNL1       -0.0043
      7 N          -6.7590   53.6340  123.6260 N.ar    1  UNL1       -0.1993
      8 C          -7.8250   52.8060  123.1330 C.ar    1  UNL1        0.2288
      9 N          -8.8410   52.4660  123.9490 N.am    1  UNL1       -0.2369
     10 C          -9.8820   51.6880  123.6020 C.2     1  UNL1        0.3253
     11 O         -10.1240   51.1410  122.5090 O.2     1  UNL1       -0.2508
     12 N         -10.6660   51.5410  124.6930 N.am    1  UNL1       -0.1690
     13 S         -12.0350   50.6070  124.6980 S.O2    1  UNL1        0.0770
     14 O         -13.2920   51.0400  124.1490 O.2     1  UNL1       -0.1498
     15 O         -11.8610   50.5510  126.1390 O.2     1  UNL1       -0.1498
     16 C         -11.4930   48.9690  124.3530 C.ar    1  UNL1        0.1268
     17 C         -12.4580   48.2930  123.5240 C.ar    1  UNL1       -0.0336
     18 C         -12.2250   46.9030  123.0910 C.ar    1  UNL1       -0.0598
     19 C         -10.9900   46.2120  123.5120 C.ar    1  UNL1       -0.0603
     20 C         -10.0540   46.8930  124.3290 C.ar    1  UNL1       -0.0415
     21 C         -10.2790   48.2540  124.7580 C.ar    1  UNL1        0.0675
     22 N          -7.7810   52.3560  121.8040 N.ar    1  UNL1       -0.1609
     23 CL         -9.0940   48.9900  125.7400 Cl      1  UNL1       -0.0815
     24 H          -5.8296   52.0921  117.7866 H       1  UNL1        0.0661
     25 H          -4.7514   52.1738  119.1591 H       1  UNL1        0.0661
     26 H          -5.6199   53.5999  118.6443 H       1  UNL1        0.0661
     27 H          -3.9217   54.9083  122.3754 H       1  UNL1        0.0308
     28 H          -4.1179   54.2952  123.9998 H       1  UNL1        0.0308
     29 H          -4.9831   55.7272  123.4961 H       1  UNL1        0.0308
     30 H          -8.8202   52.8134  124.8699 H       1  UNL1        0.1593
     31 H         -10.4127   52.0093  125.5211 H       1  UNL1        0.1781
     32 H         -13.3171   48.7844  123.2316 H       1  UNL1        0.0638
     33 H         -12.9180   46.4181  122.4997 H       1  UNL1        0.0618
     34 H         -10.8100   45.2406  123.2135 H       1  UNL1        0.0618
     35 H          -9.1931   46.4064  124.6240 H       1  UNL1        0.0633
@<TRIPOS>BOND
     1     1     2    1
     2     2     3    1
     3     3     4   ar
     4     4     5   ar
     5     5     6    1
     6     5     7   ar
     7     7     8   ar
     8     8     9    1
     9     9    10   am
    10    10    11    2
    11    10    12   am
    12    12    13    1
    13    13    14    2
    14    13    15    2
    15    13    16    1
    16    16    17   ar
    17    17    18   ar
    18    18    19   ar
    19    19    20   ar
    20    16    21   ar
    21    20    21   ar
    22     3    22   ar
    23     8    22   ar
    24    21    23    1
    25     1    24    1
    26     1    25    1
    27     1    26    1
    28     6    27    1
    29     6    28    1
    30     6    29    1
    31     9    30    1
    32    12    31    1
    33    17    32    1
    34    18    33    1
    35    19    34    1
    36    20    35    1
