7ROU_66I_A_401
     RDKit          3D

 39 42  0  0  0  0  0  0  0  0999 V2000
   56.8119   19.5922   52.1482 C   0  0  1  0  0  0  0  0  0  0  0  0
   55.4185   21.4319   51.0372 C   0  0  0  0  0  0  0  0  0  0  0  0
   54.4102   20.5557   50.6444 C   0  0  0  0  0  0  0  0  0  0  0  0
   53.0979   20.9811   50.4389 C   0  0  0  0  0  0  0  0  0  0  0  0
   52.7684   22.3543   50.5820 C   0  0  0  0  0  0  0  0  0  0  0  0
   56.8253   20.8765   51.2555 C   0  0  0  0  0  0  0  0  0  0  0  0
   53.7580   23.2676   50.9933 C   0  0  0  0  0  0  0  0  0  0  0  0
   55.0816   22.8224   51.2180 C   0  0  0  0  0  0  0  0  0  0  0  0
   62.8446   12.4893   47.5878 C   0  0  2  0  0  0  0  0  0  0  0  0
   57.1210   18.4129   51.2377 C   0  0  0  0  0  0  0  0  0  0  0  0
   59.9748   16.8921   47.0129 C   0  0  2  0  0  0  0  0  0  0  0  0
   59.5670   17.1366   49.2565 C   0  0  2  0  0  0  0  0  0  0  0  0
   60.0648   15.8446   49.9022 C   0  0  0  0  0  0  0  0  0  0  0  0
   62.1536   14.4021   43.3247 C   0  0  0  0  0  0  0  0  0  0  0  0
   61.0009   16.3905   42.7345 C   0  0  0  0  0  0  0  0  0  0  0  0
   61.0289   15.8329   44.9521 C   0  0  0  0  0  0  0  0  0  0  0  0
   61.7781   14.6559   44.6995 C   0  0  0  0  0  0  0  0  0  0  0  0
   61.9574   14.0431   45.9967 C   0  0  0  0  0  0  0  0  0  0  0  0
   58.1846   16.8508   48.6416 C   0  0  2  0  0  0  0  0  0  0  0  0
   58.6795   16.1200   47.4115 C   0  0  1  0  0  0  0  0  0  0  0  0
   64.1456   12.7066   47.8691 F   0  0  0  0  0  0  0  0  0  0  0  0
   62.6948   11.1500   47.6074 F   0  0  0  0  0  0  0  0  0  0  0  0
   62.8890   13.2683   42.9712 N   0  0  0  0  0  0  0  0  0  0  0  0
   61.7364   15.2761   42.3821 N   0  0  0  0  0  0  0  0  0  0  0  0
   60.6163   16.7221   43.9974 N   0  0  0  0  0  0  0  0  0  0  0  0
   61.3371   14.7914   46.9587 N   0  0  0  0  0  0  0  0  0  0  0  0
   60.8242   15.9040   46.3308 N   0  0  0  0  0  0  0  0  0  0  0  0
   58.1546   17.6719   51.6726 N   0  0  0  0  0  0  0  0  0  0  0  0
   57.8471   19.6501   53.2190 N   0  0  0  0  0  0  0  0  0  0  0  0
   62.6176   12.8813   46.2623 O   0  0  0  0  0  0  0  0  0  0  0  0
   60.4914   17.3426   48.2487 O   0  0  0  0  0  0  0  0  0  0  0  0
   59.7649   15.7705   51.1432 O   0  0  0  0  0  0  0  0  0  0  0  0
   58.1455   15.5145   52.9807 O   0  0  0  0  0  0  0  0  0  0  0  0
   51.4819   22.7646   50.3835 O   0  0  0  0  0  0  0  0  0  0  0  0
   56.4830   18.1561   50.2305 O   0  0  0  0  0  0  0  0  0  0  0  0
   57.2466   15.4306   50.7746 O   0  0  0  0  0  0  0  0  0  0  0  0
   57.5531   18.0357   48.2731 O   0  0  0  0  0  0  0  0  0  0  0  0
   57.7243   16.2971   46.4101 O   0  0  0  0  0  0  0  0  0  0  0  0
   58.1448   16.0232   51.6890 S   0  0  1  0  0  0  0  0  0  0  0  0
  2  3  2  0
  3  4  1  0
  4  5  2  0
  2  6  1  0
  1  6  1  0
  5  7  1  0
  7  8  2  0
  2  8  1  0
  1 10  1  0
 12 13  1  6
 16 17  1  0
 14 17  2  0
 17 18  1  0
 12 19  1  0
 19 20  1  0
 11 20  1  0
  9 21  1  6
  9 22  1  0
 14 23  1  0
 15 24  2  0
 14 24  1  0
 16 25  2  0
 15 25  1  0
 18 26  2  0
 11 27  1  1
 26 27  1  0
 16 27  1  0
 10 28  1  0
  1 29  1  1
  9 30  1  0
 18 30  1  0
 12 31  1  0
 11 31  1  0
 13 32  1  0
  5 34  1  0
 10 35  2  0
 19 37  1  6
 20 38  1  6
 32 39  1  0
 33 39  2  0
 39 28  1  1
 36 39  2  0
M  END
