
     RDKit          3D

 32 34  0  0  0  0  0  0  0  0999 V2000
   25.6572  -12.8304  -12.7525 C   0  0  0  0  0  0  0  0  0  0  0  0
   24.3301  -12.9875  -14.6790 C   0  0  0  0  0  0  0  0  0  0  0  0
   23.3625  -12.0308  -14.8378 C   0  0  0  0  0  0  0  0  0  0  0  0
   22.1831  -12.4869  -15.3770 C   0  0  0  0  0  0  0  0  0  0  0  0
   22.9784  -14.6108  -15.5272 C   0  0  0  0  0  0  0  0  0  0  0  0
   20.6000   -9.5235  -17.0529 C   0  0  0  0  0  0  0  0  0  0  0  0
   18.9117   -7.8231  -18.4870 C   0  0  0  0  0  0  0  0  0  0  0  0
   20.0911   -7.2897  -17.9526 C   0  0  0  0  0  0  0  0  0  0  0  0
   20.9182   -8.1721  -17.2206 C   0  0  0  0  0  0  0  0  0  0  0  0
   20.4912   -5.8136  -18.1609 C   0  0  2  0  0  0  0  0  0  0  0  0
   21.4378   -6.1015  -20.4780 C   0  0  0  0  0  0  0  0  0  0  0  0
   22.8685   -5.8276  -19.9709 C   0  0  2  0  0  0  0  0  0  0  0  0
   25.1571   -4.0250  -20.2600 C   0  0  0  0  0  0  0  0  0  0  0  0
   25.5286  -12.5574  -14.1447 O   0  0  0  0  0  0  0  0  0  0  0  0
   21.9537  -13.7764  -15.7360 N   0  0  0  0  0  0  0  0  0  0  0  0
   24.1698  -14.2801  -15.0149 N   0  0  0  0  0  0  0  0  0  0  0  0
   21.0517  -11.5297  -15.6128 C   0  0  0  0  0  0  0  0  0  0  0  0
   19.9492  -11.7557  -15.1260 O   0  0  0  0  0  0  0  0  0  0  0  0
   21.4255  -10.4356  -16.3733 N   0  0  0  0  0  0  0  0  0  0  0  0
   19.4041  -10.0086  -17.5850 C   0  0  0  0  0  0  0  0  0  0  0  0
   18.5629   -9.1592  -18.3018 C   0  0  0  0  0  0  0  0  0  0  0  0
   18.0816   -7.0641  -19.2125 F   0  0  0  0  0  0  0  0  0  0  0  0
   19.5933   -4.8955  -17.2897 C   0  0  0  0  0  0  0  0  0  0  0  0
   20.0805   -3.6286  -17.2282 F   0  0  0  0  0  0  0  0  0  0  0  0
   20.3851   -5.3885  -19.6365 C   0  0  0  0  0  0  0  0  0  0  0  0
   23.7662   -7.0014  -20.3988 C   0  0  0  0  0  0  0  0  0  0  0  0
   22.9022   -5.6517  -18.4535 C   0  0  0  0  0  0  0  0  0  0  0  0
   24.1025   -5.6159  -17.7843 N   0  0  0  0  0  0  0  0  0  0  0  0
   21.8727   -5.5790  -17.6766 N   0  0  0  0  0  0  0  0  0  0  0  0
   23.4702   -4.2791  -20.7660 S   0  0  2  0  0  6  0  0  0  0  0  0
   22.7155   -3.1468  -20.2606 O   0  0  0  0  0  0  0  0  0  0  0  0
   23.5142   -4.5166  -22.2007 O   0  0  0  0  0  0  0  0  0  0  0  0
  2  3  4  0
  3  4  4  0
  7  8  4  0
  8  9  4  0
  6  9  4  0
  8 10  1  0
 11 12  1  0
  2 14  1  0
  1 14  1  0
  4 15  4  0
  5 15  4  0
  2 16  4  0
  5 16  4  0
  4 17  1  0
 17 18  2  0
  6 19  1  0
 17 19  1  0
  6 20  4  0
  7 21  4  0
 20 21  4  0
  7 22  1  0
 10 23  1  1
 23 24  1  0
 11 25  1  0
 10 25  1  0
 12 26  1  1
 12 27  1  0
 27 28  1  0
 27 29  2  0
 10 29  1  0
 30 13  1  1
 12 30  1  0
 30 31  2  0
 30 32  2  0
M  END
