@<TRIPOS>MOLECULE
1G9V_RQ3_A_801
 48 49 0 0 0
SMALL
GASTEIGER

@<TRIPOS>ATOM
      1 C          16.1500   22.3350   42.8110 C.2     1  UNL1        0.3485
      2 O          15.3160   21.8930   41.9800 O.3     1  UNL1       -0.4779
      3 O          16.9980   23.2070   42.5060 O.2     1  UNL1       -0.2465
      4 C          16.1410   21.7710   44.2030 C.3     1  UNL1        0.2003
      5 C          15.1160   22.5540   45.0230 C.3     1  UNL1       -0.0145
      6 C          17.5310   21.9290   44.8610 C.3     1  UNL1       -0.0145
      7 O          15.7170   20.3840   44.1390 O.3     1  UNL1       -0.4751
      8 C          16.5230   19.2430   43.6250 C.ar    1  UNL1        0.1221
      9 C          16.2460   17.9700   44.1170 C.ar    1  UNL1       -0.0196
     10 C          16.9520   16.8770   43.6600 C.ar    1  UNL1       -0.0547
     11 C          17.9400   17.0290   42.7100 C.ar    1  UNL1       -0.0384
     12 C          17.5250   19.4050   42.6630 C.ar    1  UNL1       -0.0196
     13 C          18.2350   18.2860   42.2070 C.ar    1  UNL1       -0.0547
     14 C          18.6450   15.8760   42.2400 C.3     1  UNL1        0.0494
     15 C          17.8550   15.0410   41.2140 C.2     1  UNL1        0.2215
     16 O          16.7450   15.4130   40.8360 O.2     1  UNL1       -0.2751
     17 N          18.2860   13.8040   41.0020 N.am    1  UNL1       -0.2852
     18 C          17.7310   12.8920   40.1270 C.ar    1  UNL1        0.0339
     19 C          16.3370   12.7960   39.9850 C.ar    1  UNL1       -0.0375
     20 C          15.7870   11.7440   39.2710 C.ar    1  UNL1       -0.0484
     21 C          16.6210   10.7910   38.7010 C.ar    1  UNL1       -0.0558
     22 C          18.5490   11.9350   39.5470 C.ar    1  UNL1       -0.0375
     23 C          18.0040   10.8950   38.8420 C.ar    1  UNL1       -0.0484
     24 C          14.3030   11.6400   39.1100 C.3     1  UNL1       -0.0396
     25 C          18.9090    9.8760   38.2190 C.3     1  UNL1       -0.0396
     26 H          14.6954   21.2411   42.2406 H       1  UNL1        0.2952
     27 H          15.4138   23.5801   45.0802 H       1  UNL1        0.0273
     28 H          15.0597   22.1434   46.0095 H       1  UNL1        0.0273
     29 H          14.1569   22.4866   44.5534 H       1  UNL1        0.0273
     30 H          17.7986   22.9647   44.8850 H       1  UNL1        0.0273
     31 H          18.2579   21.3859   44.2939 H       1  UNL1        0.0273
     32 H          17.4986   21.5458   45.8595 H       1  UNL1        0.0273
     33 H          15.5083   17.8438   44.8276 H       1  UNL1        0.0654
     34 H          16.7393   15.9381   44.0318 H       1  UNL1        0.0622
     35 H          17.7404   20.3432   42.2910 H       1  UNL1        0.0654
     36 H          18.9763   18.3980   41.4978 H       1  UNL1        0.0622
     37 H          18.8711   15.2529   43.0800 H       1  UNL1        0.0407
     38 H          19.5250   16.2289   41.7440 H       1  UNL1        0.0407
     39 H          19.0730   13.5101   41.5153 H       1  UNL1        0.1548
     40 H          15.7236   13.5078   40.4118 H       1  UNL1        0.0639
     41 H          16.2157   10.0034   38.1714 H       1  UNL1        0.0623
     42 H          19.5737   12.0065   39.6469 H       1  UNL1        0.0639
     43 H          13.8314   12.4575   39.6142 H       1  UNL1        0.0278
     44 H          13.9624   10.7171   39.5308 H       1  UNL1        0.0278
     45 H          14.0540   11.6711   38.0698 H       1  UNL1        0.0278
     46 H          18.3213    9.1403   37.7108 H       1  UNL1        0.0278
     47 H          19.4915    9.4026   38.9816 H       1  UNL1        0.0278
     48 H          19.5604   10.3574   37.5198 H       1  UNL1        0.0278
@<TRIPOS>BOND
     1     1     2    1
     2     1     3    2
     3     1     4    1
     4     4     5    1
     5     4     6    1
     6     4     7    1
     7     7     8    1
     8     8     9   ar
     9     9    10   ar
    10    10    11   ar
    11     8    12   ar
    12    11    13   ar
    13    12    13   ar
    14    11    14    1
    15    14    15    1
    16    15    16    2
    17    15    17   am
    18    17    18    1
    19    18    19   ar
    20    19    20   ar
    21    20    21   ar
    22    18    22   ar
    23    21    23   ar
    24    22    23   ar
    25    20    24    1
    26    23    25    1
    27     2    26    1
    28     5    27    1
    29     5    28    1
    30     5    29    1
    31     6    30    1
    32     6    31    1
    33     6    32    1
    34     9    33    1
    35    10    34    1
    36    12    35    1
    37    13    36    1
    38    14    37    1
    39    14    38    1
    40    17    39    1
    41    19    40    1
    42    21    41    1
    43    22    42    1
    44    24    43    1
    45    24    44    1
    46    24    45    1
    47    25    46    1
    48    25    47    1
    49    25    48    1
