7ZZW_KKW_B_610
     RDKit          3D

 52 56  0  0  0  0  0  0  0  0999 V2000
   23.2564  -26.7408   27.1705 C   0  0  0  0  0  0  0  0  0  0  0  0
   23.9744  -26.5879   28.3571 C   0  0  0  0  0  0  0  0  0  0  0  0
   22.0144  -30.1135   31.9315 C   0  0  1  0  0  0  0  0  0  0  0  0
   24.5143  -27.6954   28.9940 C   0  0  0  0  0  0  0  0  0  0  0  0
   24.2419  -25.3753   29.0052 C   0  0  0  0  0  0  0  0  0  0  0  0
   25.0096  -25.5388   30.1558 C   0  0  0  0  0  0  0  0  0  0  0  0
   21.7860  -31.5828   32.3291 C   0  0  2  0  0  0  0  0  0  0  0  0
   20.7278  -28.7213   30.2356 C   0  0  0  0  0  0  0  0  0  0  0  0
   21.3932  -28.3442   27.9231 C   0  0  0  0  0  0  0  0  0  0  0  0
   20.8687  -27.0496   27.9810 C   0  0  0  0  0  0  0  0  0  0  0  0
   20.6556  -29.6034   31.4702 C   0  0  1  0  0  0  0  0  0  0  0  0
   20.2730  -26.5885   29.1556 C   0  0  0  0  0  0  0  0  0  0  0  0
   20.2030  -27.4176   30.2778 C   0  0  0  0  0  0  0  0  0  0  0  0
   23.6360  -32.2577   29.2037 C   0  0  1  0  0  0  0  0  0  0  0  0
   24.7321  -31.4684   28.4813 C   0  0  1  0  0  0  0  0  0  0  0  0
   25.2028  -30.1033   30.5548 C   0  0  1  0  0  0  0  0  0  0  0  0
   24.9159  -31.4479   31.2429 C   0  0  2  0  0  0  0  0  0  0  0  0
   24.3559  -28.9830   28.4629 C   0  0  0  0  0  0  0  0  0  0  0  0
   23.1146  -28.0354   26.6466 C   0  0  0  0  0  0  0  0  0  0  0  0
   19.8266  -30.8608   31.2615 C   0  0  1  0  0  0  0  0  0  0  0  0
   22.6072  -32.5300   31.4738 C   0  0  0  0  0  0  0  0  0  0  0  0
   21.3221  -29.1785   29.0423 C   0  0  0  0  0  0  0  0  0  0  0  0
   20.3536  -31.8713   32.1742 N   0  0  0  0  0  0  0  0  0  0  0  0
   23.7100  -32.0675   30.6625 N   0  0  0  0  0  0  0  0  0  0  0  0
   24.8805  -30.1540   29.1184 N   0  0  0  0  0  0  0  0  0  0  0  0
   23.6597  -29.1096   27.2942 N   0  0  0  0  0  0  0  0  0  0  0  0
   22.2985  -33.7539   31.4463 O   0  0  0  0  0  0  0  0  0  0  0  0
   25.3489  -27.1833   30.3605 S   0  0  0  0  0  0  0  0  0  0  0  0
   22.1466  -28.9225   26.4498 Cl  0  0  0  0  0  0  0  0  0  0  0  0
   22.8283  -25.8863   26.6579 H   0  0  0  0  0  0  0  0  0  0  0  0
   22.3677  -29.5241   32.8093 H   0  0  0  0  0  0  0  0  0  0  0  0
   22.7823  -30.0135   31.1315 H   0  0  0  0  0  0  0  0  0  0  0  0
   23.8977  -24.4105   28.6493 H   0  0  0  0  0  0  0  0  0  0  0  0
   25.3386  -24.7401   30.8074 H   0  0  0  0  0  0  0  0  0  0  0  0
   22.0759  -31.7379   33.3932 H   0  0  0  0  0  0  0  0  0  0  0  0
   20.9215  -26.4008   27.1173 H   0  0  0  0  0  0  0  0  0  0  0  0
   20.1993  -29.0416   32.3180 H   0  0  0  0  0  0  0  0  0  0  0  0
   19.8679  -25.5863   29.1992 H   0  0  0  0  0  0  0  0  0  0  0  0
   19.7406  -27.0391   31.1803 H   0  0  0  0  0  0  0  0  0  0  0  0
   22.6492  -31.8953   28.8383 H   0  0  0  0  0  0  0  0  0  0  0  0
   23.7288  -33.3385   28.9600 H   0  0  0  0  0  0  0  0  0  0  0  0
   25.6955  -32.0185   28.5569 H   0  0  0  0  0  0  0  0  0  0  0  0
   24.4905  -31.3731   27.3997 H   0  0  0  0  0  0  0  0  0  0  0  0
   24.5864  -29.3190   31.0498 H   0  0  0  0  0  0  0  0  0  0  0  0
   26.2738  -29.8411   30.6905 H   0  0  0  0  0  0  0  0  0  0  0  0
   24.8292  -31.2877   32.3364 H   0  0  0  0  0  0  0  0  0  0  0  0
   25.7792  -32.1330   31.0860 H   0  0  0  0  0  0  0  0  0  0  0  0
   22.5733  -28.1861   25.7236 H   0  0  0  0  0  0  0  0  0  0  0  0
   18.7499  -30.6641   31.4661 H   0  0  0  0  0  0  0  0  0  0  0  0
   19.9151  -31.2443   30.2222 H   0  0  0  0  0  0  0  0  0  0  0  0
   21.7360  -30.1779   28.9833 H   0  0  0  0  0  0  0  0  0  0  0  0
   19.8889  -31.7304   33.1034 H   0  0  0  0  0  0  0  0  0  0  0  0
  1  2  2  0
  2  4  1  0
  2  5  1  0
  5  6  2  0
  3  7  1  0
  9 10  2  0
 11  8  1  0
  3 11  1  0
 10 12  1  0
 12 13  2  0
  8 13  1  0
 14 15  1  0
 16 17  1  0
  4 18  2  0
  1 19  1  0
 11 20  1  0
  7 21  1  0
  9 22  1  0
  8 22  2  0
 20 23  1  0
  7 23  1  0
 17 24  1  0
 14 24  1  0
 21 24  1  0
 16 25  1  0
 15 25  1  0
 18 25  1  0
 18 26  1  0
 19 26  2  0
 21 27  2  0
  6 28  1  0
  4 28  1  0
  9 29  1  0
  1 30  1  0
  3 31  1  1
  3 32  1  0
  5 33  1  0
  6 34  1  0
  7 35  1  1
 10 36  1  0
 11 37  1  1
 12 38  1  0
 13 39  1  0
 14 40  1  6
 14 41  1  0
 15 42  1  6
 15 43  1  0
 16 44  1  1
 16 45  1  0
 17 46  1  1
 17 47  1  0
 19 48  1  0
 20 49  1  1
 20 50  1  0
 22 51  1  0
 23 52  1  0
M  END
