7QF4_RBF_AAA_201
     RDKit          3D

 47 49  0  0  0  0  0  0  0  0999 V2000
    2.4728   -0.1430    0.6318 N   0  0  0  0  0  0  0  0  0  0  0  0
    3.3779    0.4221   -0.2107 C   0  0  0  0  0  0  0  0  0  0  0  0
    4.3633    1.0440    0.2666 O   0  0  0  0  0  0  0  0  0  0  0  0
    3.2270    0.3219   -1.5630 N   0  0  0  0  0  4  0  0  0  0  0  0
    2.1768   -0.3445   -2.1172 C   0  0  0  0  0  0  0  0  0  0  0  0
    2.0691   -0.4197   -3.3712 O   0  0  0  0  0  0  0  0  0  0  0  0
    1.2271   -0.9426   -1.2908 C   0  0  0  0  0  0  0  0  0  0  0  0
    0.1714   -1.6233   -1.7818 N   0  0  0  0  0  0  0  0  0  0  0  0
   -0.7275   -2.2105   -0.9539 C   0  0  0  0  0  0  0  0  0  0  0  0
   -1.7935   -2.9140   -1.5191 C   0  0  0  0  0  0  0  0  0  0  0  0
   -2.7402   -3.5586   -0.7144 C   0  0  0  0  0  0  0  0  0  0  0  0
   -3.8695   -4.3138   -1.3665 C   0  0  0  0  0  0  0  0  0  0  0  0
   -2.5953   -3.5212    0.6886 C   0  0  0  0  0  0  0  0  0  0  0  0
   -3.5784   -4.2245    1.5903 C   0  0  0  0  0  0  0  0  0  0  0  0
   -1.5310   -2.8027    1.2596 C   0  0  0  0  0  0  0  0  0  0  0  0
   -0.5819   -2.1205    0.4602 C   0  0  0  0  0  0  0  0  0  0  0  0
    0.4700   -1.3954    1.0049 N   0  0  0  0  0  4  0  0  0  0  0  0
    1.3935   -0.8246    0.1627 C   0  0  0  0  0  0  0  0  0  0  0  0
    0.6499   -1.2219    2.4670 C   0  0  0  0  0  0  0  0  0  0  0  0
    1.6627   -0.0945    2.7762 C   0  0  2  0  0  0  0  0  0  0  0  0
    1.0024    1.1309    2.9671 O   0  0  0  0  0  0  0  0  0  0  0  0
    2.7721    0.0330    1.6844 C   0  0  2  0  0  0  0  0  0  0  0  0
    3.2546    1.3539    1.6713 O   0  0  0  0  0  0  0  0  0  0  0  0
    2.3489   -0.3347    0.2345 C   0  0  2  0  0  0  0  0  0  0  0  0
    2.6249   -1.6842   -0.0469 O   0  0  0  0  0  0  0  0  0  0  0  0
    3.0001    0.5530   -0.8348 C   0  0  0  0  0  0  0  0  0  0  0  0
    2.7214    0.0554   -2.1162 O   0  0  0  0  0  0  0  0  0  0  0  0
    3.9365    0.7668   -2.1895 H   0  0  0  0  0  0  0  0  0  0  0  0
   -1.8803   -2.9599   -2.5987 H   0  0  0  0  0  0  0  0  0  0  0  0
   -4.8416   -3.9957   -0.9355 H   0  0  0  0  0  0  0  0  0  0  0  0
   -3.7331   -5.4034   -1.2042 H   0  0  0  0  0  0  0  0  0  0  0  0
   -3.9096   -4.1270   -2.4608 H   0  0  0  0  0  0  0  0  0  0  0  0
   -3.2536   -4.2039    2.6524 H   0  0  0  0  0  0  0  0  0  0  0  0
   -3.6774   -5.2887    1.2906 H   0  0  0  0  0  0  0  0  0  0  0  0
   -4.5691   -3.7287    1.5217 H   0  0  0  0  0  0  0  0  0  0  0  0
   -1.4529   -2.8152    2.3327 H   0  0  0  0  0  0  0  0  0  0  0  0
    0.9098   -2.1743    2.9602 H   0  0  0  0  0  0  0  0  0  0  0  0
   -0.3256   -0.9680    2.9366 H   0  0  0  0  0  0  0  0  0  0  0  0
    2.1735   -0.3847    3.7258 H   0  0  0  0  0  0  0  0  0  0  0  0
    0.6875    1.1528    3.9085 H   0  0  0  0  0  0  0  0  0  0  0  0
    3.6214   -0.6412    1.9497 H   0  0  0  0  0  0  0  0  0  0  0  0
    3.8685    1.4498    2.4464 H   0  0  0  0  0  0  0  0  0  0  0  0
    1.2478   -0.1633    0.1624 H   0  0  0  0  0  0  0  0  0  0  0  0
    1.9078   -2.2238    0.3774 H   0  0  0  0  0  0  0  0  0  0  0  0
    4.1001    0.6053   -0.6826 H   0  0  0  0  0  0  0  0  0  0  0  0
    2.5870    1.5820   -0.7685 H   0  0  0  0  0  0  0  0  0  0  0  0
    3.3306   -0.7145   -2.2635 H   0  0  0  0  0  0  0  0  0  0  0  0
  1  2  4  0
  2  3  2  0
  2  4  4  0
  4  5  4  0
  5  6  2  0
  5  7  4  0
  7  8  4  0
  8  9  4  0
  9 10  4  0
 10 11  4  0
 11 12  1  0
 11 13  4  0
 13 14  1  0
 13 15  4  0
  9 16  4  0
 15 16  4  0
 16 17  4  0
  1 18  4  0
  7 18  1  0
 17 18  4  0
 17 19  1  0
 19 20  1  0
 20 21  1  0
 20 22  1  0
 22 23  1  0
 22 24  1  0
 24 25  1  0
 24 26  1  0
 26 27  1  0
  4 28  1  0
 10 29  1  0
 12 30  1  0
 12 31  1  0
 12 32  1  0
 14 33  1  0
 14 34  1  0
 14 35  1  0
 15 36  1  0
 19 37  1  0
 19 38  1  0
 20 39  1  1
 21 40  1  0
 22 41  1  1
 23 42  1  0
 24 43  1  1
 25 44  1  0
 26 45  1  0
 26 46  1  0
 27 47  1  0
M  CHG  2   4   1  17   1
M  END
