7NA4_1I9_A_201
     RDKit          3D

 71 76  0  0  0  0  0  0  0  0999 V2000
    1.9207    4.3335   -0.2178 C   0  0  0  0  0  0  0  0  0  0  0  0
    3.4271    4.1475    0.0227 C   0  0  1  0  0  0  0  0  0  0  0  0
    3.7044    2.8946    0.8731 C   0  0  0  0  0  0  0  0  0  0  0  0
    3.4228    1.5822    0.1161 C   0  0  0  0  0  0  0  0  0  0  0  0
    3.7769    1.6289   -1.4039 C   0  0  1  0  0  0  0  0  0  0  0  0
    4.7894    2.7567   -1.6943 C   0  0  0  0  0  0  0  0  0  0  0  0
    4.2331    4.1389   -1.3046 C   0  0  0  0  0  0  0  0  0  0  0  0
    4.2745    0.2392   -1.9091 C   0  0  1  0  0  0  0  0  0  0  0  0
    3.6283   -0.9212    0.3210 C   0  0  0  0  0  0  0  0  0  0  0  0
    2.9694   -1.3287    2.9981 C   0  0  0  0  0  0  0  0  0  0  0  0
    3.9491   -2.1328    2.4003 C   0  0  0  0  0  0  0  0  0  0  0  0
    4.2430   -1.8957    1.0651 C   0  0  0  0  0  0  0  0  0  0  0  0
    5.2031   -1.8451   -0.8161 C   0  0  0  0  0  0  0  0  0  0  0  0
    6.1446    0.1182   -2.3728 C   0  0  0  0  0  0  0  0  0  0  0  0
    4.7513    0.2876   -1.7783 C   0  0  0  0  0  0  0  0  0  0  0  0
    5.1387   -4.4867   -1.6971 C   0  0  0  0  0  0  0  0  0  0  0  0
    2.5717   -1.3151    6.5016 C   0  0  0  0  0  0  0  0  0  0  0  0
    1.5830    0.6242    0.2070 C   0  0  0  0  0  0  0  0  0  0  0  0
    1.3684    1.9706    0.5301 C   0  0  0  0  0  0  0  0  0  0  0  0
    0.2998    2.6638   -0.0432 C   0  0  0  0  0  0  0  0  0  0  0  0
   -0.5820    1.9836   -0.8862 C   0  0  0  0  0  0  0  0  0  0  0  0
    0.6447   -0.0294   -0.6050 C   0  0  0  0  0  0  0  0  0  0  0  0
    5.6373    0.2980   -2.6096 C   0  0  0  0  0  0  0  0  0  0  0  0
    4.2516   -0.8521   -0.8983 N   0  0  0  0  0  4  0  0  0  0  0  0
    2.5843   -0.1677    0.9243 C   0  0  0  0  0  0  0  0  0  0  0  0
    2.3104   -0.4012    2.2431 N   0  0  0  0  0  0  0  0  0  0  0  0
    5.2124   -2.4920    0.3702 N   0  0  0  0  0  0  0  0  0  0  0  0
    6.2860   -2.1614   -1.8351 C   0  0  2  0  0  0  0  0  0  0  0  0
    6.3023   -1.1966   -2.8745 O   0  0  0  0  0  0  0  0  0  0  0  0
    6.0842   -3.5579   -2.4525 C   0  0  2  0  0  0  0  0  0  0  0  0
    4.6917   -3.8448   -3.0002 C   0  0  0  0  0  0  0  0  0  0  0  0
    2.6131   -1.4931    4.4185 C   0  0  0  0  0  0  0  0  0  0  0  0
    3.2256   -0.8449    5.4290 N   0  0  0  0  0  4  0  0  0  0  0  0
    2.8217   -0.9723    7.6868 O   0  0  0  0  0  0  0  0  0  0  0  0
    1.6428   -2.1733    6.1641 O   0  0  0  0  0  0  0  0  0  0  0  0
    1.6367   -2.3127    4.8697 N   0  0  0  0  0  0  0  0  0  0  0  0
    0.0472    4.3607    0.3201 Cl  0  0  0  0  0  0  0  0  0  0  0  0
   -0.3990    0.6604   -1.1357 N   0  0  0  0  0  0  0  0  0  0  0  0
    1.4959    3.4840   -0.7905 H   0  0  0  0  0  0  0  0  0  0  0  0
    1.7360    5.2720   -0.7828 H   0  0  0  0  0  0  0  0  0  0  0  0
    1.3852    4.4080    0.7529 H   0  0  0  0  0  0  0  0  0  0  0  0
    3.7608    5.0274    0.6172 H   0  0  0  0  0  0  0  0  0  0  0  0
    3.1016    2.9222    1.8071 H   0  0  0  0  0  0  0  0  0  0  0  0
    4.7736    2.9095    1.1823 H   0  0  0  0  0  0  0  0  0  0  0  0
    3.9835    0.7779    0.6386 H   0  0  0  0  0  0  0  0  0  0  0  0
    2.3455    1.3288    0.2255 H   0  0  0  0  0  0  0  0  0  0  0  0
    2.8386    1.8751   -1.9192 H   0  0  0  0  0  0  0  0  0  0  0  0
    5.7177    2.5764   -1.1183 H   0  0  0  0  0  0  0  0  0  0  0  0
    5.0622    2.7771   -2.7704 H   0  0  0  0  0  0  0  0  0  0  0  0
    5.0937    4.8366   -1.2084 H   0  0  0  0  0  0  0  0  0  0  0  0
    3.6153    4.5308   -2.1390 H   0  0  0  0  0  0  0  0  0  0  0  0
    3.5701   -0.0255   -2.7138 H   0  0  0  0  0  0  0  0  0  0  0  0
    4.4884   -2.8878    2.9585 H   0  0  0  0  0  0  0  0  0  0  0  0
    6.3365    0.9129   -3.1300 H   0  0  0  0  0  0  0  0  0  0  0  0
    6.8901    0.2685   -1.5645 H   0  0  0  0  0  0  0  0  0  0  0  0
    3.9767    0.1037   -2.5501 H   0  0  0  0  0  0  0  0  0  0  0  0
    4.6076   -0.4276   -0.9427 H   0  0  0  0  0  0  0  0  0  0  0  0
    4.6338    1.3202   -1.3904 H   0  0  0  0  0  0  0  0  0  0  0  0
    5.3693   -5.5686   -1.7949 H   0  0  0  0  0  0  0  0  0  0  0  0
    4.6221   -4.0778   -0.8028 H   0  0  0  0  0  0  0  0  0  0  0  0
    2.0221    2.4745    1.2316 H   0  0  0  0  0  0  0  0  0  0  0  0
   -1.4218    2.5002   -1.3309 H   0  0  0  0  0  0  0  0  0  0  0  0
    0.7372   -1.0884   -0.8046 H   0  0  0  0  0  0  0  0  0  0  0  0
    5.9168   -0.7151   -2.9685 H   0  0  0  0  0  0  0  0  0  0  0  0
    6.4259    0.6568   -1.9296 H   0  0  0  0  0  0  0  0  0  0  0  0
    5.5975    0.9736   -3.4898 H   0  0  0  0  0  0  0  0  0  0  0  0
    7.2634   -2.1652   -1.2933 H   0  0  0  0  0  0  0  0  0  0  0  0
    6.9300   -4.0928   -2.9306 H   0  0  0  0  0  0  0  0  0  0  0  0
    3.9405   -3.0375   -2.8693 H   0  0  0  0  0  0  0  0  0  0  0  0
    4.6717   -4.5417   -3.8638 H   0  0  0  0  0  0  0  0  0  0  0  0
    4.0095   -0.1559    5.3932 H   0  0  0  0  0  0  0  0  0  0  0  0
  2  1  1  0
  2  3  1  0
  3  4  1  0
  5  4  1  0
  5  6  1  0
  6  7  1  0
  2  7  1  0
  5  8  1  0
 10 11  4  0
 11 12  4  0
  9 12  4  0
 14 15  1  0
 18 19  4  0
 19 20  4  0
 20 21  4  0
 18 22  4  0
  8 23  1  0
  9 24  4  0
 13 24  4  0
  8 24  1  0
 18 25  1  0
  9 25  4  0
 10 26  4  0
 25 26  4  0
 12 27  4  0
 13 27  4  0
 13 28  1  0
 28 29  1  0
 14 29  1  0
 16 30  1  0
 28 30  1  0
 16 31  1  0
 30 31  1  0
 10 32  1  0
 17 33  4  0
 32 33  4  0
 17 34  2  0
 17 35  4  0
 35 36  4  0
 32 36  4  0
 20 37  1  0
 21 38  4  0
 22 38  4  0
  1 39  1  0
  1 40  1  0
  1 41  1  0
  2 42  1  1
  3 43  1  0
  3 44  1  0
  4 45  1  0
  4 46  1  0
  5 47  1  6
  6 48  1  0
  6 49  1  0
  7 50  1  0
  7 51  1  0
  8 52  1  6
 11 53  1  0
 14 54  1  0
 14 55  1  0
 15 56  1  0
 15 57  1  0
 15 58  1  0
 16 59  1  0
 16 60  1  0
 19 61  1  0
 21 62  1  0
 22 63  1  0
 23 64  1  0
 23 65  1  0
 23 66  1  0
 28 67  1  1
 30 68  1  6
 31 69  1  0
 31 70  1  0
 33 71  1  0
M  CHG  2  24   1  33   1
M  END
