1IA1_TQ3_B_196
     RDKit          3D

 31 33  0  0  0  0  0  0  0  0999 V2000
   17.8799   17.9150    8.2453 C   0  0  0  0  0  0  0  0  0  0  0  0
   18.2939   18.0764    9.5946 C   0  0  0  0  0  0  0  0  0  0  0  0
   17.7213   17.1908   10.5486 C   0  0  0  0  0  0  0  0  0  0  0  0
   16.9237   16.1751   10.1242 N   0  0  0  0  0  0  0  0  0  0  0  0
   16.6091   16.0070    8.8171 C   0  0  0  0  0  0  0  0  0  0  0  0
   17.0638   16.8887    7.8955 N   0  0  0  0  0  0  0  0  0  0  0  0
   17.8454   17.3875   11.9585 N   0  0  0  0  0  0  0  0  0  0  0  0
   18.3190   18.7981    7.2552 C   0  0  0  0  0  0  0  0  0  0  0  0
   19.1929   19.8324    7.5757 C   0  0  0  0  0  0  0  0  0  0  0  0
   19.6743   19.9615    8.8762 C   0  0  0  0  0  0  0  0  0  0  0  0
   19.2689   19.0761    9.8856 C   0  0  0  0  0  0  0  0  0  0  0  0
   15.7678   14.9276    8.4182 N   0  0  0  0  0  0  0  0  0  0  0  0
   20.1656   19.1874   11.4456 S   0  0  0  0  0  0  0  0  0  0  0  0
   21.3898   17.9767   10.9421 C   0  0  0  0  0  0  0  0  0  0  0  0
   22.6045   18.3979   10.3853 C   0  0  0  0  0  0  0  0  0  0  0  0
   23.5563   17.4545    9.9852 C   0  0  0  0  0  0  0  0  0  0  0  0
   23.2987   16.0893   10.1446 C   0  0  0  0  0  0  0  0  0  0  0  0
   22.0898   15.6667   10.7063 C   0  0  0  0  0  0  0  0  0  0  0  0
   21.1370   16.6084   11.1072 C   0  0  0  0  0  0  0  0  0  0  0  0
   17.2288   16.8509   12.6081 H   0  0  0  0  0  0  0  0  0  0  0  0
   18.2955   18.2485   12.3377 H   0  0  0  0  0  0  0  0  0  0  0  0
   17.9847   18.6806    6.2316 H   0  0  0  0  0  0  0  0  0  0  0  0
   19.5291   20.5139    6.8049 H   0  0  0  0  0  0  0  0  0  0  0  0
   20.4035   20.7329    9.0909 H   0  0  0  0  0  0  0  0  0  0  0  0
   15.6600   14.6866    7.4080 H   0  0  0  0  0  0  0  0  0  0  0  0
   15.2527   14.3669    9.1328 H   0  0  0  0  0  0  0  0  0  0  0  0
   22.8095   19.4532   10.2580 H   0  0  0  0  0  0  0  0  0  0  0  0
   24.4927   17.7813    9.5518 H   0  0  0  0  0  0  0  0  0  0  0  0
   24.0355   15.3598    9.8345 H   0  0  0  0  0  0  0  0  0  0  0  0
   21.8917   14.6100   10.8314 H   0  0  0  0  0  0  0  0  0  0  0  0
   20.2050   16.2731   11.5427 H   0  0  0  0  0  0  0  0  0  0  0  0
  1  2  1  0
  2  3  2  0
  3  4  1  0
  4  5  2  0
  1  6  2  0
  5  6  1  0
  3  7  1  0
  1  8  1  0
  8  9  2  0
  9 10  1  0
  2 11  1  0
 10 11  2  0
  5 12  1  0
 11 13  1  0
 13 14  1  0
 14 15  2  0
 15 16  1  0
 16 17  2  0
 17 18  1  0
 14 19  1  0
 18 19  2  0
  7 20  1  0
  7 21  1  0
  8 22  1  0
  9 23  1  0
 10 24  1  0
 12 25  1  0
 12 26  1  0
 15 27  1  0
 16 28  1  0
 17 29  1  0
 18 30  1  0
 19 31  1  0
M  END
