7UF2_5SP_A_301
     RDKit          3D

 25 24  0  0  0  0  0  0  0  0999 V2000
   -4.5035   -2.0844    1.1202 O   0  0  0  0  0  0  0  0  0  0  0  0
   -3.4040   -1.4291    1.6867 C   0  0  0  0  0  0  0  0  0  0  0  0
   -3.4593   -1.5615    3.1804 C   0  0  0  0  0  0  0  0  0  0  0  0
   -4.5087   -1.8826    3.7188 O   0  0  0  0  0  0  0  0  0  0  0  0
   -2.2299   -1.3010    4.0208 C   0  0  2  0  0  0  0  0  0  0  0  0
   -1.0046   -1.0032    3.1217 C   0  0  1  0  0  0  0  0  0  0  0  0
   -1.3260   -0.0028    1.9970 C   0  0  0  0  0  0  0  0  0  0  0  0
   -2.7062   -0.0086    1.7142 O   0  0  0  0  0  0  0  0  0  0  0  0
   -3.3303   -1.5472    2.1006 P   0  0  1  0  0  5  0  0  0  0  0  0
   -4.1141   -2.0676    0.9171 O   0  0  0  0  0  0  0  0  0  0  0  0
   -2.0693   -2.6260    2.4381 O   0  0  0  0  0  0  0  0  0  0  0  0
   -4.3609   -1.4366    3.4398 O   0  0  0  0  0  0  0  0  0  0  0  0
   -1.9790   -2.4085    4.8480 O   0  0  0  0  0  0  0  0  0  0  0  0
    0.1065   -0.5752    3.8735 O   0  0  0  0  0  0  0  0  0  0  0  0
   -4.4067   -1.9841    0.1377 H   0  0  0  0  0  0  0  0  0  0  0  0
   -2.4576   -1.8817    1.3153 H   0  0  0  0  0  0  0  0  0  0  0  0
   -3.4192   -0.3540    1.3988 H   0  0  0  0  0  0  0  0  0  0  0  0
   -2.4110   -0.4020    4.6560 H   0  0  0  0  0  0  0  0  0  0  0  0
   -0.7187   -1.9558    2.6228 H   0  0  0  0  0  0  0  0  0  0  0  0
   -0.7294   -0.2859    1.0991 H   0  0  0  0  0  0  0  0  0  0  0  0
   -1.0070    1.0075    2.3389 H   0  0  0  0  0  0  0  0  0  0  0  0
   -1.9195   -2.5473    3.4142 H   0  0  0  0  0  0  0  0  0  0  0  0
   -5.0041   -0.7211    3.2044 H   0  0  0  0  0  0  0  0  0  0  0  0
   -2.6613   -2.3883    5.5695 H   0  0  0  0  0  0  0  0  0  0  0  0
   -0.1322    0.2803    4.3150 H   0  0  0  0  0  0  0  0  0  0  0  0
  1  2  1  0
  2  3  1  0
  3  4  2  0
  3  5  1  0
  5  6  1  0
  6  7  1  0
  7  8  1  0
  9  8  1  6
  9 10  2  0
  9 11  1  0
  9 12  1  0
  5 13  1  0
  6 14  1  0
  1 15  1  0
  2 16  1  0
  2 17  1  0
  5 18  1  1
  6 19  1  6
  7 20  1  0
  7 21  1  0
 11 22  1  0
 12 23  1  0
 13 24  1  0
 14 25  1  0
M  END
