1U1C_BAU_F_5051
     RDKit          3D

 20 21  0  0  0  0  0  0  0  0999 V2000
   -0.7661  133.0992   69.5235 O   0  0  0  0  0  0  0  0  0  0  0  0
   -0.0295  132.4095   68.5858 C   0  0  0  0  0  0  0  0  0  0  0  0
    0.9878  133.0399   67.7192 C   0  0  0  0  0  0  0  0  0  0  0  0
    0.6598  133.8567   66.7166 O   0  0  0  0  0  0  0  0  0  0  0  0
    1.3716  134.9712   66.9249 C   0  0  0  0  0  0  0  0  0  0  0  0
    1.9232  135.4046   68.0864 N   0  0  0  0  0  0  0  0  0  0  0  0
    3.3307  135.7460   68.2232 C   0  0  0  0  0  0  0  0  0  0  0  0
    4.1584  135.6452   67.3012 O   0  0  0  0  0  0  0  0  0  0  0  0
    3.7671  136.1829   69.5059 N   0  0  0  0  0  0  0  0  0  0  0  0
    2.8857  136.2837   70.6159 C   0  0  0  0  0  0  0  0  0  0  0  0
    3.3505  136.7086   71.6884 O   0  0  0  0  0  0  0  0  0  0  0  0
    1.0451  135.5105   69.2232 C   0  0  0  0  0  0  0  0  0  0  0  0
    1.4931  135.9341   70.4891 C   0  0  0  0  0  0  0  0  0  0  0  0
    0.5090  135.9448   71.7189 C   0  0  0  0  0  0  0  0  0  0  0  0
    0.3987  134.5805   72.3972 C   0  0  0  0  0  0  0  0  0  0  0  0
   -0.4020  133.5192   71.8112 C   0  0  0  0  0  0  0  0  0  0  0  0
   -0.5105  132.2404   72.4761 C   0  0  0  0  0  0  0  0  0  0  0  0
    0.1865  132.0358   73.7240 C   0  0  0  0  0  0  0  0  0  0  0  0
    0.9795  133.0941   74.2974 C   0  0  0  0  0  0  0  0  0  0  0  0
    1.0905  134.3604   73.6444 C   0  0  0  0  0  0  0  0  0  0  0  0
  1  2  1  0
  2  3  1  0
  3  4  1  0
  4  5  1  0
  5  6  1  0
  6  7  1  0
  7  8  2  0
  7  9  1  0
  9 10  1  0
 10 11  2  0
  6 12  1  0
 10 13  1  0
 12 13  2  0
 13 14  1  0
 14 15  1  0
 15 16  2  0
 16 17  1  0
 17 18  2  0
 18 19  1  0
 15 20  1  0
 19 20  2  0
M  END
