7LOU_IFM_A_611
     RDKit          3D

 10 10  0  0  0  0  0  0  0  0999 V2000
  -13.5366   -6.4856   71.3181 O   0  0  0  0  0  0  0  0  0  0  0  0
  -14.5009   -5.6418   70.7635 C   0  0  1  0  0  0  0  0  0  0  0  0
  -15.5493   -5.3836   71.8445 C   0  0  2  0  0  0  0  0  0  0  0  0
  -15.9812   -6.5217   72.4760 O   0  0  0  0  0  0  0  0  0  0  0  0
  -16.6584   -4.5978   71.1798 C   0  0  0  0  0  0  0  0  0  0  0  0
  -16.0847   -3.2991   70.8349 N   0  0  0  0  0  0  0  0  0  0  0  0
  -15.0507   -3.4661   69.8505 C   0  0  0  0  0  0  0  0  0  0  0  0
  -13.9378   -4.2886   70.4201 C   0  0  2  0  0  0  0  0  0  0  0  0
  -12.7352   -4.3656   69.5223 C   0  0  0  0  0  0  0  0  0  0  0  0
  -11.9922   -3.2192   69.4753 O   0  0  0  0  0  0  0  0  0  0  0  0
  2  1  1  1
  2  3  1  0
  3  4  1  6
  3  5  1  0
  5  6  1  1
  7  6  1  6
  2  8  1  0
  7  8  1  0
  8  9  1  6
  9 10  1  6
M  END
$$$$
