
     RDKit          3D

 22 24  0  0  0  0  0  0  0  0999 V2000
    5.6194   -4.4320   21.0791 C   0  0  0  0  0  0  0  0  0  0  0  0
    6.8119   -4.7047   21.7389 C   0  0  0  0  0  0  0  0  0  0  0  0
    7.6936   -3.6129   21.8108 C   0  0  0  0  0  0  0  0  0  0  0  0
    7.3683   -2.4249   21.2606 N   0  0  0  0  0  0  0  0  0  0  0  0
    5.2525   -3.2642   20.5244 N   0  0  0  0  0  0  0  0  0  0  0  0
   12.4677   -2.9387   22.5697 O   0  0  0  0  0  0  0  0  0  0  0  0
   11.8426   -1.9208   22.8121 C   0  0  0  0  0  0  0  0  0  0  0  0
   12.1179   -0.7756   22.1578 O   0  0  0  0  0  0  0  0  0  0  0  0
   10.7425   -1.7446   23.8180 C   0  0  0  0  0  0  0  0  0  0  0  0
    9.3889   -1.9760   23.1621 C   0  0  0  0  0  0  0  0  0  0  0  0
    9.2549   -3.7114   22.6305 S   0  0  0  0  0  0  0  0  0  0  0  0
    6.1797   -2.3161   20.6579 C   0  0  0  0  0  0  0  0  0  0  0  0
    4.5654   -5.7677   21.0054 S   0  0  0  0  0  0  0  0  0  0  0  0
    5.6727   -6.7597   21.8394 C   0  0  0  0  0  0  0  0  0  0  0  0
    6.8318   -6.0858   22.1763 C   0  0  0  0  0  0  0  0  0  0  0  0
    7.8869   -6.8031   22.8741 C   0  0  0  0  0  0  0  0  0  0  0  0
    9.1011   -7.0625   22.2293 C   0  0  0  0  0  0  0  0  0  0  0  0
   10.1217   -7.7378   22.9022 C   0  0  0  0  0  0  0  0  0  0  0  0
    9.9348   -8.1732   24.2197 C   0  0  0  0  0  0  0  0  0  0  0  0
   11.0449   -8.8638   24.9557 C   0  0  0  0  0  0  0  0  0  0  0  0
    8.7191   -7.9055   24.8616 C   0  0  0  0  0  0  0  0  0  0  0  0
    7.6961   -7.2310   24.1908 C   0  0  0  0  0  0  0  0  0  0  0  0
  1  2  4  0
  2  3  4  0
  3  4  4  0
  1  5  4  0
  6  7  2  0
  7  8  1  0
  7  9  1  0
  9 10  1  0
  3 11  1  0
 10 11  1  0
  4 12  4  0
  5 12  4  0
  1 13  4  0
 13 14  4  0
  2 15  4  0
 14 15  4  0
 15 16  1  0
 16 17  4  0
 17 18  4  0
 18 19  4  0
 19 20  1  0
 19 21  4  0
 16 22  4  0
 21 22  4  0
M  END
