7N6F_0I1_A_502
     RDKit          3D

 26 29  0  0  0  0  0  0  0  0999 V2000
  -26.3127  -25.7823   12.5861 C   0  0  0  0  0  0  0  0  0  0  0  0
  -28.0299  -23.9797   11.6707 C   0  0  0  0  0  0  0  0  0  0  0  0
  -28.1757  -24.6034   10.3410 C   0  0  1  0  0  0  0  0  0  0  0  0
  -28.4703  -24.4268    7.9439 C   0  0  0  0  0  0  0  0  0  0  0  0
  -29.3367  -25.5533   10.2966 C   0  0  0  0  0  0  0  0  0  0  0  0
  -31.0597  -26.8028    7.0508 C   0  0  0  0  0  0  0  0  0  0  0  0
  -31.7954  -26.7104    4.8075 C   0  0  0  0  0  0  0  0  0  0  0  0
  -29.9560  -23.5872    5.4646 C   0  0  0  0  0  0  0  0  0  0  0  0
  -30.2505  -22.5267    6.3166 C   0  0  0  0  0  0  0  0  0  0  0  0
  -29.7087  -21.2720    6.1561 C   0  0  0  0  0  0  0  0  0  0  0  0
  -29.0801  -23.3100    4.4368 C   0  0  0  0  0  0  0  0  0  0  0  0
  -24.5325  -24.1629   13.0300 F   0  0  0  0  0  0  0  0  0  0  0  0
  -25.4211  -25.0614   13.5999 C   0  0  1  0  0  0  0  0  0  0  0  0
  -26.7560  -24.4267   14.0039 C   0  0  0  0  0  0  0  0  0  0  0  0
  -27.1815  -24.5961   12.6296 N   0  0  0  0  0  0  0  0  0  0  0  0
  -28.6183  -22.9211   12.0121 O   0  0  0  0  0  0  0  0  0  0  0  0
  -28.2557  -23.6086    9.2192 C   0  0  0  0  0  0  0  0  0  0  0  0
  -29.7928  -25.0194    8.0098 N   0  0  0  0  0  0  0  0  0  0  0  0
  -30.4148  -25.0545    9.3330 C   0  0  0  0  0  0  0  0  0  0  0  0
  -30.4717  -25.5472    6.8796 C   0  0  0  0  0  0  0  0  0  0  0  0
  -31.7143  -27.3539    5.9903 N   0  0  0  0  0  0  0  0  0  0  0  0
  -31.2189  -25.4911    4.6577 N   0  0  0  0  0  0  0  0  0  0  0  0
  -30.5528  -24.8964    5.6872 C   0  0  0  0  0  0  0  0  0  0  0  0
  -28.8277  -21.0517    5.0965 C   0  0  0  0  0  0  0  0  0  0  0  0
  -28.2587  -19.8421    4.8803 F   0  0  0  0  0  0  0  0  0  0  0  0
  -28.5128  -22.0701    4.2363 C   0  0  0  0  0  0  0  0  0  0  0  0
  3  2  1  1
  3  5  1  0
  8  9  2  0
  9 10  1  0
  8 11  1  0
 13 12  1  6
  1 13  1  0
 13 14  1  0
  1 15  1  1
 14 15  1  1
  2 15  1  0
  2 16  2  0
  3 17  1  0
 17  4  1  1
  4 18  1  6
  5 19  1  6
 19 18  1  6
  6 20  2  0
 18 20  1  0
  6 21  1  0
  7 21  2  0
  7 22  1  0
 20 23  1  0
 22 23  2  0
  8 23  1  0
 10 24  2  0
 24 25  1  0
 11 26  2  0
 24 26  1  0
M  END
$$$$
