5SD5_HWI_A_202
     RDKit          3D

 29 31  0  0  0  0  0  0  0  0999 V2000
   10.6817    4.5451   16.6185 C   0  0  0  0  0  0  0  0  0  0  0  0
   13.5087    3.7790   16.9162 C   0  0  0  0  0  0  0  0  0  0  0  0
   10.8893    1.3992   19.3826 C   0  0  0  0  0  0  0  0  0  0  0  0
   10.3165   -0.9030   19.5023 C   0  0  0  0  0  0  0  0  0  0  0  0
   11.5571   -1.2311   18.9753 C   0  0  0  0  0  0  0  0  0  0  0  0
   12.4765   -0.2544   18.6266 C   0  0  0  0  0  0  0  0  0  0  0  0
   14.9965    0.1692   18.4752 C   0  0  0  0  0  0  0  0  0  0  0  0
   12.7980    4.0085   15.5849 C   0  0  0  0  0  0  0  0  0  0  0  0
   12.5118    3.3203   17.9689 C   0  0  0  0  0  0  0  0  0  0  0  0
   12.1199    1.0806   18.8521 C   0  0  0  0  0  0  0  0  0  0  0  0
    9.9598    0.4127   19.7169 C   0  0  0  0  0  0  0  0  0  0  0  0
    8.6077    0.7750   20.3091 C   0  0  0  0  0  0  0  0  0  0  0  0
   11.6100    1.1418   16.6252 C   0  0  0  0  0  0  0  0  0  0  0  0
   11.9546    2.4784   17.3231 C   0  0  0  0  0  0  0  0  0  0  0  0
   10.7511    3.3918   17.3362 C   0  0  0  0  0  0  0  0  0  0  0  0
    8.6165    3.7438   18.1224 C   0  0  0  0  0  0  0  0  0  0  0  0
    9.4912    5.3235   16.7054 C   0  0  0  0  0  0  0  0  0  0  0  0
   15.7244   -1.1875   18.6002 C   0  0  1  0  0  0  0  0  0  0  0  0
   14.3864   -1.8854   18.1814 C   0  0  0  0  0  0  0  0  0  0  0  0
   16.8351   -1.4307   17.5342 C   0  0  0  0  0  0  0  0  0  0  0  0
    9.7120    2.9923   18.0995 N   0  0  0  0  0  0  0  0  0  0  0  0
    7.5899    3.2929   18.8878 N   0  0  0  0  0  0  0  0  0  0  0  0
    8.4693    4.8968   17.4709 N   0  0  0  0  0  0  0  0  0  0  0  0
    9.3479    6.4690   16.0520 N   0  0  0  0  0  0  0  0  0  0  0  0
   13.7256   -0.5578   18.1296 N   0  0  0  0  0  0  0  0  0  0  0  0
   11.7508    4.9813   15.8475 O   0  0  0  0  0  0  0  0  0  0  0  0
   13.0321    2.0576   18.4866 O   0  0  0  0  0  0  0  0  0  0  0  0
   16.5004   -2.0149   16.4893 O   0  0  0  0  0  0  0  0  0  0  0  0
   18.0105   -1.0330   17.8150 O   0  0  0  0  0  0  0  0  0  0  0  0
  4  5  1  0
  5  6  2  0
  2  8  1  0
  2  9  1  0
  3 10  2  0
  6 10  1  0
  3 11  1  0
  4 11  2  0
 11 12  1  0
 13 14  1  0
 14 15  1  0
  1 15  2  0
  1 17  1  0
  7 18  1  0
 18 19  1  0
 18 20  1  6
 15 21  1  0
 16 21  2  0
 16 22  1  0
 16 23  1  0
 17 23  2  0
 17 24  1  0
  6 25  1  0
  7 25  1  0
 19 25  1  0
  1 26  1  0
  8 26  1  0
  9 27  1  0
 10 27  1  0
 20 28  2  0
 20 29  1  0
M  END
