7FB7_8NF_A_304
     RDKit          3D

  9  9  0  0  0  0  0  0  0  0999 V2000
   65.7695   32.4719   49.7005 C   0  0  0  0  0  0  0  0  0  0  0  0
   64.5618   32.3075   48.8565 C   0  0  0  0  0  0  0  0  0  0  0  0
   63.3116   32.7176   49.2950 C   0  0  0  0  0  0  0  0  0  0  0  0
   62.2106   32.5456   48.4756 C   0  0  0  0  0  0  0  0  0  0  0  0
   63.5302   31.5699   46.7851 C   0  0  0  0  0  0  0  0  0  0  0  0
   64.6471   31.7372   47.6001 C   0  0  0  0  0  0  0  0  0  0  0  0
   60.8510   32.9864   48.9407 C   0  0  0  0  0  0  0  0  0  0  0  0
   62.3266   31.9784   47.2384 N   0  0  0  0  0  0  0  0  0  0  0  0
   65.9077   31.2833   47.0666 N   0  0  0  0  0  0  0  0  0  0  0  0
  1  2  1  6
  2  3  2  0
  3  4  1  0
  5  6  2  0
  2  6  1  0
  7  4  1  1
  5  8  1  0
  4  8  2  0
  6  9  1  0
M  END
$$$$
