7NR8_UOE_A_408
     RDKit          3D

 45 50  0  0  0  0  0  0  0  0999 V2000
   20.4325    0.2618   28.9358 C   0  0  0  0  0  0  0  0  0  0  0  0
   19.0312    0.0331   28.4141 C   0  0  2  0  0  0  0  0  0  0  0  0
   17.5584   -2.7331   30.3928 C   0  0  0  0  0  0  0  0  0  0  0  0
   17.0862   -3.4944   31.4445 C   0  0  0  0  0  0  0  0  0  0  0  0
   16.5721   -4.7552   31.2657 C   0  0  0  0  0  0  0  0  0  0  0  0
   16.5109   -5.3156   29.9873 C   0  0  0  0  0  0  0  0  0  0  0  0
   17.5051   -3.2701   29.1234 C   0  0  0  0  0  0  0  0  0  0  0  0
   18.0567   -2.2797   28.2084 C   0  0  0  0  0  0  0  0  0  0  0  0
   15.9673   -6.6561   29.7823 C   0  0  0  0  0  0  0  0  0  0  0  0
   15.0103   -8.6774   30.5937 C   0  0  0  0  0  0  0  0  0  0  0  0
   15.5911   -7.7570   34.8362 C   0  0  0  0  0  0  0  0  0  0  0  0
   13.6725   -8.9854   35.2919 C   0  0  0  0  0  0  0  0  0  0  0  0
   13.8545   -9.8479   34.0427 C   0  0  0  0  0  0  0  0  0  0  0  0
   15.3973   -8.4459   28.3315 C   0  0  0  0  0  0  0  0  0  0  0  0
   15.9123   -7.1762   28.4956 C   0  0  0  0  0  0  0  0  0  0  0  0
   18.2157    1.2289   28.7351 C   0  0  0  0  0  0  0  0  0  0  0  0
   16.4876    3.9296   26.9460 C   0  0  0  0  0  0  0  0  0  0  0  0
   19.9493    5.6789   28.8869 C   0  0  0  0  0  0  0  0  0  0  0  0
   19.4301    6.5016   29.8554 C   0  0  0  0  0  0  0  0  0  0  0  0
   18.1347    6.2749   30.2793 C   0  0  0  0  0  0  0  0  0  0  0  0
   16.1119    6.6685   31.6939 C   0  0  0  0  0  0  0  0  0  0  0  0
   18.6132    5.7218   33.5080 C   0  0  0  0  0  0  0  0  0  0  0  0
   18.4329   -1.1448   29.0034 N   0  0  0  0  0  0  0  0  0  0  0  0
   18.1327   -1.3839   30.3959 C   0  0  0  0  0  0  0  0  0  0  0  0
   16.9872   -4.5365   28.9563 C   0  0  0  0  0  0  0  0  0  0  0  0
   18.1785   -2.3980   26.9652 O   0  0  0  0  0  0  0  0  0  0  0  0
   15.5126   -7.4304   30.7808 N   0  0  0  0  0  0  0  0  0  0  0  0
   14.5313   -9.4682   31.6933 N   0  0  0  0  0  0  0  0  0  0  0  0
   14.5342   -8.9614   33.0232 C   0  0  2  0  0  0  0  0  0  0  0  0
   15.8764   -8.5639   33.5631 C   0  0  0  0  0  0  0  0  0  0  0  0
   14.9261   -8.5839   35.7376 O   0  0  0  0  0  0  0  0  0  0  0  0
   14.9547   -9.1788   29.3713 N   0  0  0  0  0  0  0  0  0  0  0  0
   16.4667   -6.2910   27.0896 Cl  0  0  0  0  0  0  0  0  0  0  0  0
   17.6683    1.3218   29.8806 O   0  0  0  0  0  0  0  0  0  0  0  0
   18.0106    2.2914   27.8175 N   0  0  0  0  0  0  0  0  0  0  0  0
   17.1034    3.3697   28.2389 C   0  0  1  0  0  0  0  0  0  0  0  0
   17.4382    4.8308   26.4475 O   0  0  0  0  0  0  0  0  0  0  0  0
   17.9549    4.4513   28.7703 C   0  0  0  0  0  0  0  0  0  0  0  0
   19.2471    4.6361   28.3117 C   0  0  0  0  0  0  0  0  0  0  0  0
   17.4568    5.2526   29.7103 N   0  0  0  0  0  0  0  0  0  0  0  0
   17.4693    7.0310   31.2557 N   0  0  0  0  0  0  0  0  0  0  0  0
   16.2639    6.1705   33.1179 C   0  0  0  0  0  0  0  0  0  0  0  0
   17.5039    6.6087   33.7110 N   0  0  0  0  0  0  0  0  0  0  0  0
   17.8314    7.9852   33.3907 C   0  0  0  0  0  0  0  0  0  0  0  0
   18.0251    8.2100   31.9134 C   0  0  0  0  0  0  0  0  0  0  0  0
  2  1  1  1
  3  4  2  0
  4  5  1  0
  5  6  2  0
  3  7  1  0
  7  8  1  0
  6  9  1  0
 12 13  1  0
  9 15  1  0
 14 15  2  0
  2 16  1  0
 18 19  2  0
 19 20  1  0
  8 23  1  0
  2 23  1  0
 23 24  1  0
  3 24  1  0
  6 25  1  0
  7 25  2  0
  8 26  2  0
 10 27  1  0
  9 27  2  0
 10 28  1  0
 13 29  1  0
 29 28  1  6
 11 30  1  0
 29 30  1  0
 11 31  1  0
 12 31  1  0
 10 32  2  0
 14 32  1  0
 15 33  1  0
 16 34  2  0
 16 35  1  0
 35 36  1  0
 36 17  1  6
 17 37  1  0
 36 38  1  0
 38 39  2  0
 18 39  1  0
 20 40  2  0
 38 40  1  0
 21 41  1  0
 20 41  1  0
 21 42  1  0
 22 43  1  0
 42 43  1  0
 43 44  1  0
 44 45  1  0
 41 45  1  0
M  END
$$$$
