1VCJ_IBA_A_1
     RDKit          3D

 52 53  0  0  0  0  0  0  0  0999 V2000
   -1.7773    1.2502   -0.4831 C   0  0  0  0  0  0  0  0  0  0  0  0
   -1.0827    0.0341   -0.4997 C   0  0  0  0  0  0  0  0  0  0  0  0
   -0.4868   -0.4589    0.6880 C   0  0  0  0  0  0  0  0  0  0  0  0
   -0.5656    0.3301    1.8545 C   0  0  0  0  0  0  0  0  0  0  0  0
   -1.2307    1.5679    1.8561 C   0  0  0  0  0  0  0  0  0  0  0  0
   -1.8420    2.0156    0.6777 C   0  0  0  0  0  0  0  0  0  0  0  0
   -1.2977    2.3809    3.0922 C   0  0  0  0  0  0  0  0  0  0  0  0
   -0.6939    1.9307    4.2637 O   0  0  0  0  0  0  0  0  0  0  0  0
   -1.9007    3.4883    3.0964 O   0  0  0  0  0  0  0  0  0  0  0  0
    0.1632   -1.7558    0.6759 N   0  0  0  0  0  0  0  0  0  0  0  0
    0.8736   -2.4405    1.7720 C   0  0  0  0  0  0  0  0  0  0  0  0
    2.1551   -1.6919    2.2039 C   0  0  0  0  0  0  0  0  0  0  0  0
   -0.0725   -2.7605    2.9551 C   0  0  0  0  0  0  0  0  0  0  0  0
    3.1081   -1.4604    1.0328 C   0  0  0  0  0  0  0  0  0  0  0  0
    0.3119   -4.0568    3.6697 C   0  0  0  0  0  0  0  0  0  0  0  0
   -1.0486   -0.7340   -1.7146 N   0  0  0  0  0  0  0  0  0  0  0  0
   -0.2136   -0.4906   -2.9015 C   0  0  1  0  0  0  0  0  0  0  0  0
   -0.5412   -1.7002   -3.8392 C   0  0  0  0  0  0  0  0  0  0  0  0
   -1.8573   -2.3139   -3.3481 C   0  0  0  0  0  0  0  0  0  0  0  0
   -1.9976   -1.7465   -1.9970 C   0  0  0  0  0  0  0  0  0  0  0  0
   -2.8874   -2.1034   -1.1792 O   0  0  0  0  0  0  0  0  0  0  0  0
   -0.6417    0.8262   -3.5970 C   0  0  0  0  0  0  0  0  0  0  0  0
    0.1083    1.0340   -4.7636 O   0  0  0  0  0  0  0  0  0  0  0  0
    1.3097   -0.5095   -2.5533 C   0  0  0  0  0  0  0  0  0  0  0  0
    1.8119    0.7237   -1.9419 N   0  0  0  0  0  0  0  0  0  0  0  0
   -2.2851    1.6011   -1.3716 H   0  0  0  0  0  0  0  0  0  0  0  0
   -0.1261   -0.0031    2.7730 H   0  0  0  0  0  0  0  0  0  0  0  0
   -2.3792    2.9556    0.6534 H   0  0  0  0  0  0  0  0  0  0  0  0
   -0.7340    2.4798    5.1141 H   0  0  0  0  0  0  0  0  0  0  0  0
    0.1161   -2.3096   -0.2079 H   0  0  0  0  0  0  0  0  0  0  0  0
    1.2173   -3.4185    1.3613 H   0  0  0  0  0  0  0  0  0  0  0  0
    2.6892   -2.3001    2.9650 H   0  0  0  0  0  0  0  0  0  0  0  0
    1.9278   -0.7158    2.6725 H   0  0  0  0  0  0  0  0  0  0  0  0
   -0.0654   -1.9498    3.7106 H   0  0  0  0  0  0  0  0  0  0  0  0
   -1.1138   -2.8710    2.5810 H   0  0  0  0  0  0  0  0  0  0  0  0
    2.6579   -0.7560    0.3043 H   0  0  0  0  0  0  0  0  0  0  0  0
    4.0548   -1.0166    1.4066 H   0  0  0  0  0  0  0  0  0  0  0  0
    3.3421   -2.4197    0.5242 H   0  0  0  0  0  0  0  0  0  0  0  0
    0.2486   -4.9181    2.9711 H   0  0  0  0  0  0  0  0  0  0  0  0
   -0.3879   -4.2373    4.5129 H   0  0  0  0  0  0  0  0  0  0  0  0
    1.3426   -3.9879    4.0761 H   0  0  0  0  0  0  0  0  0  0  0  0
    0.2472   -2.4829   -3.7655 H   0  0  0  0  0  0  0  0  0  0  0  0
   -0.6214   -1.4144   -4.9107 H   0  0  0  0  0  0  0  0  0  0  0  0
   -2.7070   -1.9826   -3.9826 H   0  0  0  0  0  0  0  0  0  0  0  0
   -1.8033   -3.4233   -3.3117 H   0  0  0  0  0  0  0  0  0  0  0  0
   -0.4988    1.6908   -2.9145 H   0  0  0  0  0  0  0  0  0  0  0  0
   -1.7239    0.7745   -3.8553 H   0  0  0  0  0  0  0  0  0  0  0  0
   -0.2254    1.8806   -5.1595 H   0  0  0  0  0  0  0  0  0  0  0  0
    1.8964   -0.6939   -3.4806 H   0  0  0  0  0  0  0  0  0  0  0  0
    1.5263   -1.3596   -1.8737 H   0  0  0  0  0  0  0  0  0  0  0  0
    1.1937    1.0300   -1.1612 H   0  0  0  0  0  0  0  0  0  0  0  0
    1.8423    1.4831   -2.6592 H   0  0  0  0  0  0  0  0  0  0  0  0
  1  2  2  0
  2  3  1  0
  3  4  2  0
  4  5  1  0
  1  6  1  0
  5  6  2  0
  5  7  1  0
  7  8  1  0
  7  9  2  0
  3 10  1  0
 10 11  1  0
 11 12  1  0
 11 13  1  0
 12 14  1  0
 13 15  1  0
  2 16  1  0
 16 17  1  0
 17 18  1  0
 18 19  1  0
 16 20  1  0
 19 20  1  0
 20 21  2  0
 17 22  1  6
 22 23  1  0
 17 24  1  0
 24 25  1  0
  1 26  1  0
  4 27  1  0
  6 28  1  0
  8 29  1  0
 10 30  1  0
 11 31  1  0
 12 32  1  0
 12 33  1  0
 13 34  1  0
 13 35  1  0
 14 36  1  0
 14 37  1  0
 14 38  1  0
 15 39  1  0
 15 40  1  0
 15 41  1  0
 18 42  1  0
 18 43  1  0
 19 44  1  0
 19 45  1  0
 22 46  1  0
 22 47  1  0
 23 48  1  0
 24 49  1  0
 24 50  1  0
 25 51  1  0
 25 52  1  0
M  END
