@<TRIPOS>MOLECULE
1VCJ_IBA_A_1
 52 53 0 0 0
SMALL
GASTEIGER

@<TRIPOS>ATOM
      1 C          33.9140   -9.4170   64.8000 C.ar    1  UNL1       -0.0377
      2 C          32.6210   -9.0360   64.3580 C.ar    1  UNL1        0.0578
      3 C          31.5040   -9.8770   64.6320 C.ar    1  UNL1        0.0499
      4 C          31.7220  -11.0950   65.3350 C.ar    1  UNL1       -0.0251
      5 C          33.0130  -11.4650   65.7570 C.ar    1  UNL1        0.0607
      6 C          34.1040  -10.6170   65.4910 C.ar    1  UNL1       -0.0459
      7 C          33.2040  -12.7410   66.4500 C.2     1  UNL1        0.3369
      8 O          32.3210  -13.7140   66.1440 O.3     1  UNL1       -0.4771
      9 O          34.1010  -12.9090   67.1950 O.2     1  UNL1       -0.2451
     10 N          30.2750   -9.4810   64.1950 N.pl3   1  UNL1       -0.3395
     11 C          29.0320  -10.2580   64.2940 C.3     1  UNL1        0.0202
     12 C          28.7160  -10.8760   62.9100 C.3     1  UNL1       -0.0374
     13 C          27.9150   -9.3170   64.8210 C.3     1  UNL1       -0.0374
     14 C          28.2790  -12.3520   62.9670 C.3     1  UNL1       -0.0636
     15 C          27.5770   -8.1140   63.9220 C.3     1  UNL1       -0.0636
     16 N          32.4790   -7.8500   63.6470 N.am    1  UNL1       -0.2601
     17 C          33.0240   -7.6000   62.2720 C.3     1  UNL1        0.0778
     18 C          32.0750   -6.4670   61.7890 C.3     1  UNL1       -0.0195
     19 C          31.5810   -5.7250   63.0360 C.3     1  UNL1        0.0266
     20 C          31.7640   -6.7950   64.0770 C.2     1  UNL1        0.2205
     21 O          31.2610   -6.6900   65.2020 O.2     1  UNL1       -0.2752
     22 C          34.5440   -7.1480   62.2720 C.3     1  UNL1        0.0672
     23 O          34.8240   -6.2980   63.3880 O.3     1  UNL1       -0.3928
     24 C          32.8670   -8.8250   61.3170 C.3     1  UNL1        0.0172
     25 N          31.5340   -9.3880   61.1180 N.3     1  UNL1       -0.3279
     26 H          34.7213   -8.8029   64.6097 H       1  UNL1        0.0637
     27 H          30.9228  -11.7155   65.5382 H       1  UNL1        0.0645
     28 H          35.0496  -10.8826   65.8079 H       1  UNL1        0.0626
     29 H          31.6207  -13.5401   65.5463 H       1  UNL1        0.2954
     30 H          30.2148   -8.5929   63.7745 H       1  UNL1        0.1464
     31 H          29.1177  -11.0726   64.9825 H       1  UNL1        0.0497
     32 H          29.5946  -10.8086   62.3031 H       1  UNL1        0.0280
     33 H          27.8924  -10.3251   62.5061 H       1  UNL1        0.0280
     34 H          28.2252   -8.9393   65.7729 H       1  UNL1        0.0280
     35 H          27.0263   -9.9117   64.8591 H       1  UNL1        0.0280
     36 H          29.0753  -12.9445   63.3667 H       1  UNL1        0.0230
     37 H          28.0418  -12.6921   61.9806 H       1  UNL1        0.0230
     38 H          27.4164  -12.4447   63.5933 H       1  UNL1        0.0230
     39 H          28.4324   -7.4760   63.8434 H       1  UNL1        0.0230
     40 H          26.7623   -7.5673   64.3491 H       1  UNL1        0.0230
     41 H          27.3013   -8.4625   62.9486 H       1  UNL1        0.0230
     42 H          31.2451   -6.8854   61.2589 H       1  UNL1        0.0292
     43 H          32.5873   -5.7991   61.1284 H       1  UNL1        0.0292
     44 H          30.5554   -5.4345   62.9432 H       1  UNL1        0.0359
     45 H          32.0918   -4.8078   63.2426 H       1  UNL1        0.0359
     46 H          34.7516   -6.6170   61.3665 H       1  UNL1        0.0579
     47 H          35.1599   -8.0200   62.3436 H       1  UNL1        0.0579
     48 H          34.2715   -5.5025   63.3352 H       1  UNL1        0.2095
     49 H          33.4859   -9.6078   61.7032 H       1  UNL1        0.0444
     50 H          33.1358   -8.4426   60.3545 H       1  UNL1        0.0444
     51 H          31.1958   -9.7801   61.9968 H       1  UNL1        0.1183
     52 H          31.5773  -10.1230   60.4121 H       1  UNL1        0.1183
@<TRIPOS>BOND
     1     1     2   ar
     2     2     3   ar
     3     3     4   ar
     4     4     5   ar
     5     1     6   ar
     6     5     6   ar
     7     5     7    1
     8     7     8    1
     9     7     9    2
    10     3    10    1
    11    10    11    1
    12    11    12    1
    13    11    13    1
    14    12    14    1
    15    13    15    1
    16     2    16    1
    17    16    17    1
    18    17    18    1
    19    18    19    1
    20    16    20   am
    21    19    20    1
    22    20    21    2
    23    17    22    1
    24    22    23    1
    25    17    24    1
    26    24    25    1
    27     1    26    1
    28     4    27    1
    29     6    28    1
    30     8    29    1
    31    10    30    1
    32    11    31    1
    33    12    32    1
    34    12    33    1
    35    13    34    1
    36    13    35    1
    37    14    36    1
    38    14    37    1
    39    14    38    1
    40    15    39    1
    41    15    40    1
    42    15    41    1
    43    18    42    1
    44    18    43    1
    45    19    44    1
    46    19    45    1
    47    22    46    1
    48    22    47    1
    49    23    48    1
    50    24    49    1
    51    24    50    1
    52    25    51    1
    53    25    52    1
