7FHA_ADX_A_1001
     RDKit          3D

 41 43  0  0  0  0  0  0  0  0999 V2000
   -2.6823    0.5793   -2.6012 S   0  0  2  0  0  6  0  0  0  0  0  0
   -2.5817    0.5877   -4.1018 O   0  0  0  0  0  0  0  0  0  0  0  0
   -2.9690    1.9676   -2.1003 O   0  0  0  0  0  0  0  0  0  0  0  0
   -1.2133    0.0652   -1.9662 O   0  0  0  0  0  0  0  0  0  0  0  0
   -4.2298   -0.1368   -0.4429 P   0  0  1  0  0  5  0  0  0  0  0  0
   -3.0645    0.6270    0.1458 O   0  0  0  0  0  0  0  0  0  0  0  0
   -5.6182    0.8247   -0.3196 O   0  0  0  0  0  0  0  0  0  0  0  0
   -3.8864   -0.4878   -2.0750 O   0  0  0  0  0  0  0  0  0  0  0  0
   -4.4687   -1.5713    0.4499 O   0  0  0  0  0  0  0  0  0  0  0  0
   -3.2069   -2.0939    0.7967 C   0  0  0  0  0  0  0  0  0  0  0  0
   -2.1045   -1.1307    0.3363 C   0  0  2  0  0  0  0  0  0  0  0  0
   -2.5072    0.1943    0.6212 O   0  0  0  0  0  0  0  0  0  0  0  0
   -1.8185   -1.2526   -1.1663 C   0  0  2  0  0  0  0  0  0  0  0  0
   -0.4413   -1.1163   -1.4363 O   0  0  0  0  0  0  0  0  0  0  0  0
   -2.6263   -0.1184   -1.7498 C   0  0  2  0  0  0  0  0  0  0  0  0
   -2.0220    0.4419   -2.8866 O   0  0  0  0  0  0  0  0  0  0  0  0
   -2.6705    0.8816   -0.6026 C   0  0  1  0  0  0  0  0  0  0  0  0
   -3.9377    1.6147   -0.6046 N   0  0  0  0  0  4  0  0  0  0  0  0
   -5.1662    1.1675   -0.2324 C   0  0  0  0  0  0  0  0  0  0  0  0
   -6.1610    2.0697   -0.4594 N   0  0  0  0  0  0  0  0  0  0  0  0
   -5.5005    3.1081   -1.0060 C   0  0  0  0  0  0  0  0  0  0  0  0
   -5.9920    4.3211   -1.4746 C   0  0  0  0  0  0  0  0  0  0  0  0
   -7.3792    4.6503   -1.4002 N   0  0  0  0  0  0  0  0  0  0  0  0
   -5.0972    5.1979   -2.0214 N   0  0  0  0  0  0  0  0  0  0  0  0
   -3.7618    4.8945   -2.1097 C   0  0  0  0  0  0  0  0  0  0  0  0
   -3.2901    3.6971   -1.6479 N   0  0  0  0  0  0  0  0  0  0  0  0
   -4.1796    2.8340   -1.1002 C   0  0  0  0  0  0  0  0  0  0  0  0
   -0.5486    0.7230   -2.2932 H   0  0  0  0  0  0  0  0  0  0  0  0
   -5.3899    1.6620   -0.7970 H   0  0  0  0  0  0  0  0  0  0  0  0
   -3.1236   -2.2315    1.8985 H   0  0  0  0  0  0  0  0  0  0  0  0
   -3.0359   -3.0724    0.2922 H   0  0  0  0  0  0  0  0  0  0  0  0
   -1.1844   -1.3563    0.9201 H   0  0  0  0  0  0  0  0  0  0  0  0
   -2.1590   -2.2229   -1.5877 H   0  0  0  0  0  0  0  0  0  0  0  0
   -0.1286   -0.2600   -1.0418 H   0  0  0  0  0  0  0  0  0  0  0  0
   -3.6562   -0.4764   -1.9898 H   0  0  0  0  0  0  0  0  0  0  0  0
   -2.1627   -0.2057   -3.6256 H   0  0  0  0  0  0  0  0  0  0  0  0
   -1.8296    1.6052   -0.6984 H   0  0  0  0  0  0  0  0  0  0  0  0
   -5.3453    0.1874    0.1894 H   0  0  0  0  0  0  0  0  0  0  0  0
   -7.7206    5.5680   -1.7627 H   0  0  0  0  0  0  0  0  0  0  0  0
   -8.0684    3.9847   -0.9849 H   0  0  0  0  0  0  0  0  0  0  0  0
   -3.0777    5.6069   -2.5497 H   0  0  0  0  0  0  0  0  0  0  0  0
  1  2  2  0
  1  3  2  0
  1  4  1  6
  5  6  2  0
  5  7  1  1
  1  8  1  0
  5  8  1  0
  5  9  1  0
  9 10  1  0
 11 10  1  0
 11 12  1  0
 11 13  1  0
 13 14  1  0
 13 15  1  0
 15 16  1  0
 12 17  1  0
 15 17  1  0
 17 18  1  0
 18 19  4  0
 19 20  4  0
 20 21  4  0
 21 22  4  0
 22 23  1  0
 22 24  4  0
 24 25  4  0
 25 26  4  0
 18 27  4  0
 21 27  4  0
 26 27  4  0
  4 28  1  0
  7 29  1  0
 10 30  1  0
 10 31  1  0
 11 32  1  6
 13 33  1  1
 14 34  1  0
 15 35  1  1
 16 36  1  0
 17 37  1  1
 19 38  1  0
 23 39  1  0
 23 40  1  0
 25 41  1  0
M  CHG  1  18   1
M  END
