7UJ4_OQ4_A_601
     RDKit          3D

 44 48  0  0  0  0  0  0  0  0999 V2000
  -40.9989  -10.8437   23.6322 C   0  0  0  0  0  0  0  0  0  0  0  0
  -40.1316   -9.7713   24.2531 C   0  0  2  0  0  0  0  0  0  0  0  0
  -40.0998   -8.4881   23.4631 C   0  0  0  0  0  0  0  0  0  0  0  0
  -38.7749  -10.2849   24.4800 N   0  0  0  0  0  0  0  0  0  0  0  0
  -37.7382   -9.7105   23.6099 C   0  0  0  0  0  0  0  0  0  0  0  0
  -37.1123  -10.7120   22.6853 C   0  0  0  0  0  0  0  0  0  0  0  0
  -38.4895  -11.2683   25.3525 C   0  0  0  0  0  0  0  0  0  0  0  0
  -37.3917  -11.8063   25.3146 O   0  0  0  0  0  0  0  0  0  0  0  0
  -39.4657  -11.7425   26.4169 C   0  0  0  0  0  0  0  0  0  0  0  0
  -40.6695  -12.3755   26.1028 C   0  0  0  0  0  0  0  0  0  0  0  0
  -41.4612  -12.8265   27.1297 C   0  0  0  0  0  0  0  0  0  0  0  0
  -42.6245  -13.4475   26.8373 F   0  0  0  0  0  0  0  0  0  0  0  0
  -41.1499  -12.6822   28.4612 C   0  0  0  0  0  0  0  0  0  0  0  0
  -39.9709  -12.0335   28.7740 C   0  0  0  0  0  0  0  0  0  0  0  0
  -39.1728  -11.5353   27.7672 C   0  0  0  0  0  0  0  0  0  0  0  0
  -37.9710  -10.9278   28.0982 O   0  0  0  0  0  0  0  0  0  0  0  0
  -37.7612   -9.5997   27.9357 C   0  0  0  0  0  0  0  0  0  0  0  0
  -38.8473   -8.7642   27.8657 C   0  0  0  0  0  0  0  0  0  0  0  0
  -38.6796   -7.4668   27.7071 N   0  0  0  0  0  0  0  0  0  0  0  0
  -37.4283   -7.0158   27.5632 C   0  0  0  0  0  0  0  0  0  0  0  0
  -36.3229   -7.7600   27.6759 N   0  0  0  0  0  0  0  0  0  0  0  0
  -36.4826   -9.0675   27.8281 C   0  0  0  0  0  0  0  0  0  0  0  0
  -35.3850   -9.8531   27.9687 N   0  0  0  0  0  0  0  0  0  0  0  0
  -33.9853   -9.4645   28.0125 C   0  0  0  0  0  0  0  0  0  0  0  0
  -35.2859  -11.2622   28.3307 C   0  0  0  0  0  0  0  0  0  0  0  0
  -33.7413  -10.9533   28.5146 C   0  0  2  0  0  0  0  0  0  0  0  0
  -33.1853  -11.0497   29.9348 C   0  0  0  0  0  0  0  0  0  0  0  0
  -31.7447  -10.5947   29.9835 C   0  0  0  0  0  0  0  0  0  0  0  0
  -32.8483  -11.7757   27.5897 C   0  0  0  0  0  0  0  0  0  0  0  0
  -31.4082  -11.3285   27.6364 C   0  0  0  0  0  0  0  0  0  0  0  0
  -30.8698  -11.3702   29.0331 N   0  0  0  0  0  0  0  0  0  0  0  0
  -29.4830  -10.8045   29.0173 C   0  0  0  0  0  0  0  0  0  0  0  0
  -28.3928  -11.8353   29.3126 C   0  0  1  0  0  0  0  0  0  0  0  0
  -27.2788  -11.8428   28.2557 C   0  0  0  0  0  0  0  0  0  0  0  0
  -26.1806  -12.8454   28.5684 C   0  0  0  0  0  0  0  0  0  0  0  0
  -27.8183  -11.6473   30.7150 C   0  0  0  0  0  0  0  0  0  0  0  0
  -26.7611  -12.6996   31.0161 C   0  0  0  0  0  0  0  0  0  0  0  0
  -25.6539  -12.6608   29.9751 C   0  0  1  0  0  0  0  0  0  0  0  0
  -24.6649  -13.7048   30.2953 N   0  0  0  0  0  0  0  0  0  0  0  0
  -24.0240  -13.8978   31.7825 S   0  0  1  0  0  0  0  0  0  0  0  0
  -24.7462  -12.9817   32.6130 O   0  0  0  0  0  0  0  0  0  0  0  0
  -24.0741  -15.3018   32.0772 O   0  0  0  0  0  0  0  0  0  0  0  0
  -22.3243  -13.3690   31.6537 C   0  0  0  0  0  0  0  0  0  0  0  0
  -21.9201  -12.3931   32.7402 C   0  0  0  0  0  0  0  0  0  0  0  0
  2  1  1  6
  2  3  1  0
  2  4  1  0
  4  5  1  0
  5  6  1  0
  4  7  1  0
  7  8  2  0
  7  9  1  0
  9 10  2  0
 10 11  1  0
 11 12  1  0
 11 13  2  0
 13 14  1  0
  9 15  1  0
 14 15  2  0
 15 16  1  0
 16 17  1  0
 17 18  2  0
 18 19  1  0
 19 20  2  0
 20 21  1  0
 21 22  2  0
 17 22  1  0
 22 23  1  0
 23 24  1  0
 23 25  1  0
 26 24  1  6
 25 26  1  0
 26 27  1  0
 27 28  1  0
 26 29  1  0
 29 30  1  0
 30 31  1  0
 28 31  1  0
 31 32  1  0
 33 32  1  6
 33 34  1  0
 34 35  1  0
 33 36  1  0
 36 37  1  0
 37 38  1  0
 35 38  1  0
 38 39  1  1
 39 40  1  0
 40 41  2  0
 40 42  2  0
 40 43  1  6
 43 44  1  0
M  END
