7VJT_7IJ_B_1801
     RDKit          3D

 27 31  0  0  0  0  0  0  0  0999 V2000
  -10.4742  -27.6410  158.0320 C   0  0  0  0  0  0  0  0  0  0  0  0
  -10.0885  -28.9563  158.2507 C   0  0  0  0  0  0  0  0  0  0  0  0
   -7.9136  -28.2321  159.0032 C   0  0  0  0  0  0  0  0  0  0  0  0
  -11.8488  -22.5017  157.2209 C   0  0  0  0  0  0  0  0  0  0  0  0
  -11.5378  -21.1493  157.2460 C   0  0  0  0  0  0  0  0  0  0  0  0
   -7.5860  -24.5423  158.9046 C   0  0  0  0  0  0  0  0  0  0  0  0
   -8.0398  -21.1254  158.5003 C   0  0  0  0  0  0  0  0  0  0  0  0
   -8.8185  -29.2412  158.7388 C   0  0  0  0  0  0  0  0  0  0  0  0
   -8.9146  -24.1485  158.3893 C   0  0  0  0  0  0  0  0  0  0  0  0
  -10.8833  -23.4108  157.6390 C   0  0  0  0  0  0  0  0  0  0  0  0
   -9.8974  -25.2018  158.1102 C   0  0  0  0  0  0  0  0  0  0  0  0
   -9.3066  -21.6070  158.1063 C   0  0  0  0  0  0  0  0  0  0  0  0
  -10.2806  -20.7101  157.6731 C   0  0  0  0  0  0  0  0  0  0  0  0
   -7.9922  -19.9558  159.4136 N   0  0  0  0  0  0  0  0  0  0  0  0
   -8.2913  -26.9219  158.7874 C   0  0  0  0  0  0  0  0  0  0  0  0
   -8.9379  -18.9170  159.0056 C   0  0  0  0  0  0  0  0  0  0  0  0
   -8.9266  -17.7962  160.0448 C   0  0  0  0  0  0  0  0  0  0  0  0
   -7.5621  -17.1220  160.0347 C   0  0  0  0  0  0  0  0  0  0  0  0
   -6.4606  -18.1584  160.2661 C   0  0  0  0  0  0  0  0  0  0  0  0
   -6.6420  -19.3730  159.3617 C   0  0  0  0  0  0  0  0  0  0  0  0
   -9.6234  -22.9800  158.0577 C   0  0  0  0  0  0  0  0  0  0  0  0
   -9.5587  -26.6289  158.3073 C   0  0  0  0  0  0  0  0  0  0  0  0
  -11.1023  -24.7607  157.6377 O   0  0  0  0  0  0  0  0  0  0  0  0
   -7.2858  -25.9187  159.1108 O   0  0  0  0  0  0  0  0  0  0  0  0
   -6.6213  -23.6952  159.1933 O   0  0  0  0  0  0  0  0  0  0  0  0
  -10.0290  -19.3987  157.6705 O   0  0  0  0  0  0  0  0  0  0  0  0
   -8.4279  -30.4940  158.9462 O   0  0  0  0  0  0  0  0  0  0  0  0
  1  2  2  0
  4  5  1  0
  3  8  2  0
  2  8  1  0
  6  9  1  0
  4 10  2  0
  9 11  2  0
  7 12  1  0
 12 13  1  0
  5 13  2  0
  7 14  1  0
  3 15  1  0
 14 16  1  0
 16 17  1  0
 17 18  1  0
 18 19  1  0
 14 20  1  0
 19 20  1  0
  9 21  1  0
 10 21  1  0
 12 21  2  0
 15 22  2  0
  1 22  1  0
 11 22  1  0
 11 23  1  0
 10 23  1  0
 15 24  1  0
  6 24  1  0
  6 25  2  0
 13 26  1  0
  8 27  1  0
M  END
