7SFO_98L_A_601
     RDKit          3D

 25 28  0  0  0  0  0  0  0  0999 V2000
   19.1123  -16.0034   15.9388 N   0  0  0  0  0  0  0  0  0  0  0  0
   16.2603  -13.4717   14.4395 N   0  0  0  0  0  0  0  0  0  0  0  0
   13.9023  -16.9105   13.0344 C   0  0  0  0  0  0  0  0  0  0  0  0
   14.9496  -15.9979   13.2274 C   0  0  0  0  0  0  0  0  0  0  0  0
   14.8564  -14.6820   12.8346 C   0  0  0  0  0  0  0  0  0  0  0  0
   16.2207  -16.4987   13.8783 C   0  0  0  0  0  0  0  0  0  0  0  0
   18.1603  -16.5348   15.1849 C   0  0  0  0  0  0  0  0  0  0  0  0
   19.1303  -14.6687   16.2268 C   0  0  0  0  0  0  0  0  0  0  0  0
   16.2906  -12.0675   14.8141 C   0  0  0  0  0  0  0  0  0  0  0  0
   14.7984  -11.5347   12.8431 C   0  0  0  0  0  0  0  0  0  0  0  0
   14.2925   -9.2467   12.2750 C   0  0  0  0  0  0  0  0  0  0  0  0
   13.6821  -14.2545   12.2282 C   0  0  0  0  0  0  0  0  0  0  0  0
   17.1696  -14.4381   14.9450 C   0  0  0  0  0  0  0  0  0  0  0  0
   16.4282  -17.8696   13.7258 C   0  0  0  0  0  0  0  0  0  0  0  0
   15.5889  -11.1596   13.8941 C   0  0  0  0  0  0  0  0  0  0  0  0
   14.1553  -10.5958   12.0400 C   0  0  0  0  0  0  0  0  0  0  0  0
   15.0884   -8.8645   13.3321 C   0  0  0  0  0  0  0  0  0  0  0  0
   15.7311   -9.7895   14.1358 C   0  0  0  0  0  0  0  0  0  0  0  0
   12.6290  -15.1262   12.0218 C   0  0  0  0  0  0  0  0  0  0  0  0
   12.7440  -16.4485   12.4254 C   0  0  0  0  0  0  0  0  0  0  0  0
   17.0926  -15.8052   14.6139 C   0  0  0  0  0  0  0  0  0  0  0  0
   18.1560  -13.9555   15.7134 N   0  0  0  0  0  0  0  0  0  0  0  0
   13.3510  -10.9866   10.9715 O   0  0  0  0  0  0  0  0  0  0  0  0
   17.9160  -18.2346   14.6564 S   0  0  0  0  0  0  0  0  0  0  0  0
   20.4230  -14.0604   17.2292 Cl  0  0  0  0  0  0  0  0  0  0  0  0
  3  4  2  0
  4  5  1  0
  4  6  1  0
  1  7  2  0
  1  8  1  0
  2  9  1  0
  5 12  2  0
  2 13  1  0
  6 14  2  0
 10 15  2  0
  9 15  1  0
 11 16  2  0
 10 16  1  0
 11 17  1  0
 17 18  2  0
 15 18  1  0
 12 19  1  0
 19 20  2  0
  3 20  1  0
  6 21  1  0
 13 21  2  0
  7 21  1  0
 13 22  1  0
  8 22  2  0
 16 23  1  0
 14 24  1  0
  7 24  1  0
  8 25  1  0
M  END
$$$$
