
     RDKit          3D

 27 29  0  0  0  0  0  0  0  0999 V2000
   19.9897  -38.1974  -49.2785 P   0  0  0  0  0  5  0  0  0  0  0  0
   18.6887  -38.5156  -48.6390 O   0  0  0  0  0  0  0  0  0  0  0  0
   20.5631  -36.7405  -48.9710 O   0  0  0  0  0  0  0  0  0  0  0  0
   21.1806  -39.0854  -48.6669 O   0  0  0  0  0  0  0  0  0  0  0  0
   21.4634  -38.0322  -51.6464 P   0  0  1  0  0  5  0  0  0  0  0  0
   22.4506  -37.1422  -50.9729 O   0  0  0  0  0  0  0  0  0  0  0  0
   22.0954  -39.4938  -51.8603 O   0  0  0  0  0  0  0  0  0  0  0  0
   20.1298  -38.3462  -50.8441 O   0  0  0  0  0  0  0  0  0  0  0  0
   21.0393  -37.6200  -53.1345 O   0  0  0  0  0  0  0  0  0  0  0  0
   20.0213  -38.3666  -53.7904 C   0  0  0  0  0  0  0  0  0  0  0  0
   20.5348  -38.8124  -55.1593 C   0  0  1  0  0  0  0  0  0  0  0  0
   21.0998  -37.6850  -55.8524 O   0  0  0  0  0  0  0  0  0  0  0  0
   21.6376  -39.8594  -55.0471 C   0  0  1  0  0  0  0  0  0  0  0  0
   21.1390  -41.2003  -54.9975 O   0  0  0  0  0  0  0  0  0  0  0  0
   22.4349  -39.6403  -56.3230 C   0  0  1  0  0  0  0  0  0  0  0  0
   21.8826  -40.4573  -57.3724 O   0  0  0  0  0  0  0  0  0  0  0  0
   22.2128  -38.1580  -56.6384 C   0  0  2  0  0  0  0  0  0  0  0  0
   23.3518  -37.3004  -56.3851 N   0  0  0  0  0  0  0  0  0  0  0  0
   24.1732  -37.3914  -55.2900 C   0  0  0  0  0  0  0  0  0  0  0  0
   25.1224  -36.4800  -55.3063 N   0  0  0  0  0  0  0  0  0  0  0  0
   24.9075  -35.7711  -56.4697 C   0  0  0  0  0  0  0  0  0  0  0  0
   25.5813  -34.6845  -57.0523 C   0  0  0  0  0  0  0  0  0  0  0  0
   26.6903  -34.0795  -56.4753 N   0  0  0  0  0  0  0  0  0  0  0  0
   25.1414  -34.2137  -58.2408 N   0  0  0  0  0  0  0  0  0  0  0  0
   24.0567  -34.7934  -58.7960 C   0  0  0  0  0  0  0  0  0  0  0  0
   23.3208  -35.8235  -58.3275 N   0  0  0  0  0  0  0  0  0  0  0  0
   23.8125  -36.2701  -57.1590 C   0  0  0  0  0  0  0  0  0  0  0  0
  1  2  2  0
  1  3  1  0
  1  4  1  0
  5  6  2  0
  5  7  1  6
  1  8  1  0
  5  8  1  0
  5  9  1  0
  9 10  1  0
 11 10  1  1
 11 12  1  0
 11 13  1  0
 13 14  1  6
 13 15  1  0
 15 16  1  6
 12 17  1  0
 15 17  1  0
 17 18  1  1
 18 19  4  0
 19 20  4  0
 20 21  4  0
 21 22  4  0
 22 23  1  0
 22 24  4  0
 24 25  4  0
 25 26  4  0
 18 27  4  0
 21 27  4  0
 26 27  4  0
M  END
