7JUD_MMA_B_802
     RDKit          3D

 27 27  0  0  0  0  0  0  0  0999 V2000
   -0.8832   -0.7344   -0.3232 C   0  0  1  0  0  0  0  0  0  0  0  0
   -0.7156    0.5748    0.4661 C   0  0  2  0  0  0  0  0  0  0  0  0
    0.7498    0.7724    0.9241 C   0  0  2  0  0  0  0  0  0  0  0  0
    1.5489   -0.5526    0.9715 C   0  0  1  0  0  0  0  0  0  0  0  0
    0.6365   -1.7865    1.2369 C   0  0  1  0  0  0  0  0  0  0  0  0
    0.2653   -1.9129    2.7229 C   0  0  0  0  0  0  0  0  0  0  0  0
    0.7285    0.4406   -1.5106 C   0  0  0  0  0  0  0  0  0  0  0  0
   -0.1157   -0.6894   -1.5144 O   0  0  0  0  0  0  0  0  0  0  0  0
   -1.5846    0.5710    1.5734 O   0  0  0  0  0  0  0  0  0  0  0  0
    0.7774    1.4044    2.1808 O   0  0  0  0  0  0  0  0  0  0  0  0
    2.2424   -0.7251   -0.2407 O   0  0  0  0  0  0  0  0  0  0  0  0
   -0.5557   -1.8779    0.4538 O   0  0  0  0  0  0  0  0  0  0  0  0
   -1.1180   -2.0783    2.8665 O   0  0  0  0  0  0  0  0  0  0  0  0
   -1.9693   -0.7979   -0.5764 H   0  0  0  0  0  0  0  0  0  0  0  0
   -0.9870    1.4267   -0.2005 H   0  0  0  0  0  0  0  0  0  0  0  0
    1.2414    1.4444    0.1808 H   0  0  0  0  0  0  0  0  0  0  0  0
    2.3091   -0.4746    1.7855 H   0  0  0  0  0  0  0  0  0  0  0  0
    1.2394   -2.6900    0.9957 H   0  0  0  0  0  0  0  0  0  0  0  0
    0.7940   -2.7739    3.1848 H   0  0  0  0  0  0  0  0  0  0  0  0
    0.5773   -0.9842    3.2529 H   0  0  0  0  0  0  0  0  0  0  0  0
    1.2952    0.4602   -2.4645 H   0  0  0  0  0  0  0  0  0  0  0  0
    0.1442    1.3831   -1.4526 H   0  0  0  0  0  0  0  0  0  0  0  0
    1.4690    0.3878   -0.6801 H   0  0  0  0  0  0  0  0  0  0  0  0
   -2.4977    0.7637    1.2299 H   0  0  0  0  0  0  0  0  0  0  0  0
    1.6792    1.8091    2.2822 H   0  0  0  0  0  0  0  0  0  0  0  0
    2.9610   -1.3916   -0.0765 H   0  0  0  0  0  0  0  0  0  0  0  0
   -1.2881   -2.1591    3.8408 H   0  0  0  0  0  0  0  0  0  0  0  0
  1  2  1  0
  2  3  1  0
  3  4  1  0
  4  5  1  0
  5  6  1  0
  1  8  1  0
  7  8  1  0
  2  9  1  0
  3 10  1  0
  4 11  1  0
  1 12  1  0
  5 12  1  0
  6 13  1  0
  1 14  1  6
  2 15  1  6
  3 16  1  6
  4 17  1  1
  5 18  1  6
  6 19  1  0
  6 20  1  0
  7 21  1  0
  7 22  1  0
  7 23  1  0
  9 24  1  0
 10 25  1  0
 11 26  1  0
 13 27  1  0
M  END
