
     RDKit          3D

 18 20  0  0  0  0  0  0  0  0999 V2000
   -3.0393   20.0000   -8.5462 O   0  0  0  0  0  0  0  0  0  0  0  0
   -3.1193   18.7390   -7.8989 C   0  0  0  0  0  0  0  0  0  0  0  0
   -4.3763   18.6339   -7.0287 C   0  0  1  0  0  0  0  0  0  0  0  0
   -5.5095   19.1337   -7.7704 O   0  0  0  0  0  0  0  0  0  0  0  0
   -6.3012   18.0070   -8.2222 C   0  0  1  0  0  0  0  0  0  0  0  0
   -6.5616   18.1227   -9.6421 N   0  0  0  0  0  0  0  0  0  0  0  0
   -7.6235   17.5495  -10.2878 C   0  0  0  0  0  0  0  0  0  0  0  0
   -8.5939   16.7890   -9.7554 N   0  0  0  0  0  0  0  0  0  0  0  0
   -9.4635   16.3904  -10.7068 C   0  0  0  0  0  0  0  0  0  0  0  0
   -9.4437   16.6626  -12.0301 N   0  0  0  0  0  0  0  0  0  0  0  0
   -8.4515   17.4471  -12.5100 C   0  0  0  0  0  0  0  0  0  0  0  0
   -8.4376   17.7313  -13.8694 N   0  0  0  0  0  0  0  0  0  0  0  0
   -7.4755   17.9163  -11.6151 C   0  0  0  0  0  0  0  0  0  0  0  0
   -6.3436   18.6875  -11.7860 N   0  0  0  0  0  0  0  0  0  0  0  0
   -5.8304   18.8030  -10.5780 C   0  0  0  0  0  0  0  0  0  0  0  0
   -5.5512   16.7393   -7.8337 C   0  0  0  0  0  0  0  0  0  0  0  0
   -4.7363   17.1996   -6.6493 C   0  0  2  0  0  0  0  0  0  0  0  0
   -5.5671   17.1720   -5.4832 O   0  0  0  0  0  0  0  0  0  0  0  0
  1  2  1  0
  3  2  1  6
  3  4  1  0
  4  5  1  0
  5  6  1  6
  6  7  4  0
  7  8  4  0
  8  9  4  0
  9 10  4  0
 10 11  4  0
 11 12  1  0
  7 13  4  0
 11 13  4  0
 13 14  4  0
  6 15  4  0
 14 15  4  0
  5 16  1  0
  3 17  1  0
 16 17  1  0
 17 18  1  1
M  END
