7UAS_MBU_A_401
     RDKit          3D

 71 76  0  0  0  0  0  0  0  0999 V2000
   -7.5076  -12.5356   -2.1787 C   0  0  0  0  0  0  0  0  0  0  0  0
   -5.6194  -14.5484   -3.6184 C   0  0  0  0  0  0  0  0  0  0  0  0
   -8.2214  -16.0541   -1.6827 C   0  0  0  0  0  0  0  0  0  0  0  0
   -3.4585  -14.5709   -5.2746 C   0  0  2  0  0  0  0  0  0  0  0  0
    0.1743  -15.6241   -2.1011 C   0  0  0  0  0  0  0  0  0  0  0  0
   -0.0422  -17.1233   -1.9370 C   0  0  0  0  0  0  0  0  0  0  0  0
   -2.1348   -7.0619   -5.7422 C   0  0  0  0  0  0  0  0  0  0  0  0
   -2.1381   -5.6070   -5.2988 C   0  0  0  0  0  0  0  0  0  0  0  0
    0.8387   -5.6147   -2.0040 C   0  0  0  0  0  0  0  0  0  0  0  0
   -0.0243   -7.5473   -3.7950 C   0  0  0  0  0  0  0  0  0  0  0  0
   -1.7438   -9.3958   -2.4057 C   0  0  0  0  0  0  0  0  0  0  0  0
   -2.4366   -7.0214   -3.1556 C   0  0  2  0  0  0  0  0  0  0  0  0
   -4.1420   -8.8333   -2.6890 C   0  0  0  0  0  0  0  0  0  0  0  0
   -4.4646  -10.2778   -2.6375 C   0  0  0  0  0  0  0  0  0  0  0  0
   -3.4280  -11.2275   -2.7874 C   0  0  0  0  0  0  0  0  0  0  0  0
   -2.0163  -10.7471   -3.0702 C   0  0  0  0  0  0  0  0  0  0  0  0
   -3.7489  -12.6058   -2.7858 C   0  0  0  0  0  0  0  0  0  0  0  0
   -5.0754  -13.0143   -2.5994 C   0  0  0  0  0  0  0  0  0  0  0  0
   -6.0966  -12.0738   -2.4246 C   0  0  0  0  0  0  0  0  0  0  0  0
   -5.7875  -10.7083   -2.4474 C   0  0  0  0  0  0  0  0  0  0  0  0
   -6.7562  -14.8979   -2.7109 C   0  0  0  0  0  0  0  0  0  0  0  0
   -8.4808  -14.7228   -1.4479 C   0  0  0  0  0  0  0  0  0  0  0  0
   -2.5868  -14.5097   -4.0578 C   0  0  0  0  0  0  0  0  0  0  0  0
   -2.7230  -13.6431   -2.9855 C   0  0  0  0  0  0  0  0  0  0  0  0
   -1.7074  -13.9801   -2.1173 C   0  0  0  0  0  0  0  0  0  0  0  0
   -2.9803   -6.6301   -4.5507 C   0  0  2  0  0  0  0  0  0  0  0  0
    1.7817   -6.3419   -2.7304 C   0  0  0  0  0  0  0  0  0  0  0  0
   -0.9475   -6.7905   -3.0521 C   0  0  0  0  0  0  0  0  0  0  0  0
    1.3486   -7.3093   -3.6459 C   0  0  0  0  0  0  0  0  0  0  0  0
    2.3439   -8.1356   -4.4053 C   0  0  0  0  0  0  0  0  0  0  0  0
   -4.7083  -14.0506   -4.9912 F   0  0  0  0  0  0  0  0  0  0  0  0
   -3.6016  -15.8844   -5.6833 F   0  0  0  0  0  0  0  0  0  0  0  0
   -2.8834  -13.8346   -6.2934 F   0  0  0  0  0  0  0  0  0  0  0  0
   -2.7669   -8.4186   -2.8054 N   0  0  0  0  0  0  0  0  0  0  0  0
   -7.1418  -16.1714   -2.4828 N   0  0  0  0  0  0  0  0  0  0  0  0
   -7.5526  -13.9962   -2.0933 N   0  0  0  0  0  4  0  0  0  0  0  0
   -1.5363  -15.3264   -3.8393 N   0  0  0  0  0  0  0  0  0  0  0  0
   -1.0192  -15.0014   -2.6631 N   0  0  0  0  0  4  0  0  0  0  0  0
   -0.4876   -5.8539   -2.1768 N   0  0  0  0  0  0  0  0  0  0  0  0
   -5.0650   -7.9740   -2.6358 O   0  0  0  0  0  0  0  0  0  0  0  0
   -7.9191  -12.0899   -1.2475 H   0  0  0  0  0  0  0  0  0  0  0  0
   -8.1594  -12.1860   -3.0097 H   0  0  0  0  0  0  0  0  0  0  0  0
   -6.0165  -14.1628   -4.5793 H   0  0  0  0  0  0  0  0  0  0  0  0
   -5.0039  -15.4500   -3.8215 H   0  0  0  0  0  0  0  0  0  0  0  0
   -4.9734  -13.7803   -3.1460 H   0  0  0  0  0  0  0  0  0  0  0  0
   -8.7947  -16.8905   -1.3068 H   0  0  0  0  0  0  0  0  0  0  0  0
    1.0445  -15.4444   -2.7698 H   0  0  0  0  0  0  0  0  0  0  0  0
    0.4002  -15.1726   -1.1106 H   0  0  0  0  0  0  0  0  0  0  0  0
   -0.8960  -17.3124   -1.2528 H   0  0  0  0  0  0  0  0  0  0  0  0
   -0.2550  -17.5884   -2.9229 H   0  0  0  0  0  0  0  0  0  0  0  0
    0.8710  -17.5885   -1.5099 H   0  0  0  0  0  0  0  0  0  0  0  0
   -2.7095   -7.2441   -6.6754 H   0  0  0  0  0  0  0  0  0  0  0  0
   -1.1875   -7.5969   -5.5184 H   0  0  0  0  0  0  0  0  0  0  0  0
   -2.7203   -4.9316   -5.9610 H   0  0  0  0  0  0  0  0  0  0  0  0
   -1.2023   -5.2835   -4.7939 H   0  0  0  0  0  0  0  0  0  0  0  0
    1.1614   -4.8626   -1.2964 H   0  0  0  0  0  0  0  0  0  0  0  0
   -0.3624   -8.3105   -4.4825 H   0  0  0  0  0  0  0  0  0  0  0  0
   -1.7722   -9.5191   -1.3009 H   0  0  0  0  0  0  0  0  0  0  0  0
   -0.7231   -9.0650   -2.6799 H   0  0  0  0  0  0  0  0  0  0  0  0
   -2.9210   -6.3525   -2.4080 H   0  0  0  0  0  0  0  0  0  0  0  0
   -1.8839  -10.6510   -4.1694 H   0  0  0  0  0  0  0  0  0  0  0  0
   -1.2615  -11.4662   -2.6916 H   0  0  0  0  0  0  0  0  0  0  0  0
   -5.3139  -14.0718   -2.5848 H   0  0  0  0  0  0  0  0  0  0  0  0
   -6.5800   -9.9817   -2.3164 H   0  0  0  0  0  0  0  0  0  0  0  0
   -9.2976  -14.3164   -0.8650 H   0  0  0  0  0  0  0  0  0  0  0  0
   -1.4859  -13.5169   -1.1639 H   0  0  0  0  0  0  0  0  0  0  0  0
   -4.0705   -6.5821   -4.7558 H   0  0  0  0  0  0  0  0  0  0  0  0
    2.8373   -6.1535   -2.5792 H   0  0  0  0  0  0  0  0  0  0  0  0
    3.3042   -7.5896   -4.5214 H   0  0  0  0  0  0  0  0  0  0  0  0
    1.9578   -8.3726   -5.4197 H   0  0  0  0  0  0  0  0  0  0  0  0
    2.5302   -9.0835   -3.8579 H   0  0  0  0  0  0  0  0  0  0  0  0
  5  6  1  0
  7  8  1  0
 13 14  1  0
 14 15  4  0
 11 16  1  0
 15 16  1  0
 15 17  4  0
 17 18  4  0
 18 19  4  0
  1 19  1  0
 14 20  4  0
 19 20  4  0
  2 21  1  0
  3 22  4  0
  4 23  1  0
 17 24  1  0
 23 24  4  0
 24 25  4  0
  8 26  1  0
  7 26  1  0
 12 26  1  0
  9 27  4  0
 12 28  1  0
 10 28  4  0
 27 29  4  0
 10 29  4  0
 29 30  1  0
  4 31  1  6
  4 32  1  0
  4 33  1  0
 12 34  1  0
 11 34  1  0
 13 34  1  0
 21 35  4  0
  3 35  4  0
  1 36  1  0
 21 36  4  0
 22 36  4  0
 23 37  4  0
 37 38  4  0
 25 38  4  0
  5 38  1  0
  9 39  4  0
 28 39  4  0
 13 40  2  0
  1 41  1  0
  1 42  1  0
  2 43  1  0
  2 44  1  0
  2 45  1  0
  3 46  1  0
  5 47  1  0
  5 48  1  0
  6 49  1  0
  6 50  1  0
  6 51  1  0
  7 52  1  0
  7 53  1  0
  8 54  1  0
  8 55  1  0
  9 56  1  0
 10 57  1  0
 11 58  1  0
 11 59  1  0
 12 60  1  6
 16 61  1  0
 16 62  1  0
 18 63  1  0
 20 64  1  0
 22 65  1  0
 25 66  1  0
 26 67  1  1
 27 68  1  0
 30 69  1  0
 30 70  1  0
 30 71  1  0
M  CHG  2  36   1  38   1
M  END
