7PJQ_OWH_A_601
     RDKit          3D

 18 18  0  0  0  0  0  0  0  0999 V2000
   13.4157   26.3700   -4.1830 C   0  0  0  0  0  0  0  0  0  0  0  0
   12.0878   26.5896   -6.2874 C   0  0  0  0  0  0  0  0  0  0  0  0
   11.2085   25.3701   -6.1549 C   0  0  0  0  0  0  0  0  0  0  0  0
   11.7424   24.1148   -6.3881 C   0  0  0  0  0  0  0  0  0  0  0  0
    9.7277   23.1241   -5.9476 C   0  0  0  0  0  0  0  0  0  0  0  0
    9.1262   24.3476   -5.6997 C   0  0  0  0  0  0  0  0  0  0  0  0
    9.8834   25.4987   -5.8013 C   0  0  0  0  0  0  0  0  0  0  0  0
   13.3517   26.4705   -5.6222 N   0  0  0  0  0  0  0  0  0  0  0  0
   11.0037   23.0206   -6.2831 N   0  0  0  0  0  0  0  0  0  0  0  0
   11.6355   27.9006   -7.1034 S   0  0  0  0  0  0  0  0  0  0  0  0
   14.4376   26.2894   -3.8762 H   0  0  0  0  0  0  0  0  0  0  0  0
   12.8773   25.5029   -3.8616 H   0  0  0  0  0  0  0  0  0  0  0  0
   12.9796   27.2433   -3.7447 H   0  0  0  0  0  0  0  0  0  0  0  0
   12.7372   24.0295   -6.6492 H   0  0  0  0  0  0  0  0  0  0  0  0
    9.1617   22.2648   -5.8679 H   0  0  0  0  0  0  0  0  0  0  0  0
    8.1279   24.3982   -5.4432 H   0  0  0  0  0  0  0  0  0  0  0  0
    9.4691   26.4259   -5.6181 H   0  0  0  0  0  0  0  0  0  0  0  0
   14.1825   26.4572   -6.1503 H   0  0  0  0  0  0  0  0  0  0  0  0
  2  3  1  0
  3  4  4  0
  5  6  4  0
  6  7  4  0
  3  7  4  0
  1  8  1  0
  2  8  1  0
  5  9  4  0
  4  9  4  0
  2 10  2  0
  1 11  1  0
  1 12  1  0
  1 13  1  0
  4 14  1  0
  5 15  1  0
  6 16  1  0
  7 17  1  0
  8 18  1  0
M  END
