@<TRIPOS>MOLECULE
1YVF_PH7_A_800
 44 46 0 0 0
SMALL
GASTEIGER

@<TRIPOS>ATOM
      1 C          -9.7390   55.1170   46.8920 C.2     1  UNL1       -0.0263
      2 CA         -8.6220   54.7640   47.5790 C.2     1  UNL1        0.1191
      3 N          -8.4650   54.7280   49.0400 N.am    1  UNL1       -0.2758
      4 C          -8.1780   55.8220   49.8020 C.2     1  UNL1        0.2484
      5 O          -8.0570   56.9560   49.3420 O.2     1  UNL1       -0.2699
      6 C         -11.0380   55.6110   47.3820 C.ar    1  UNL1       -0.0228
      7 C         -12.1670   55.7430   46.5440 C.ar    1  UNL1       -0.0511
      8 C         -13.4320   56.7680   48.3780 C.ar    1  UNL1        0.1285
      9 C         -11.1450   56.0490   48.6910 C.ar    1  UNL1       -0.0511
     10 C         -12.3060   56.6130   49.1890 C.ar    1  UNL1       -0.0188
     11 C         -14.8120   57.5690   50.2350 C.ar    1  UNL1        0.1423
     12 C         -14.5710   58.8680   50.7250 C.ar    1  UNL1        0.0601
     13 C         -14.8090   59.1780   52.0930 C.ar    1  UNL1       -0.0442
     14 C         -15.3330   58.1950   52.9560 C.ar    1  UNL1       -0.0605
     15 C         -15.6200   56.9020   52.4720 C.ar    1  UNL1       -0.0582
     16 C         -15.3480   56.5970   51.1260 C.ar    1  UNL1       -0.0182
     17 C          -7.4500   54.2820   46.7960 C.2     1  UNL1        0.3512
     18 O          -7.4970   54.3880   45.5530 O.3     1  UNL1       -0.4763
     19 OXT        -6.4910   53.7290   47.3780 O.2     1  UNL1       -0.2437
     20 C          -8.0460   55.5360   51.2270 C.ar    1  UNL1        0.0370
     21 C          -7.2720   56.3900   52.0390 C.ar    1  UNL1       -0.0496
     22 C          -7.3110   56.2440   53.4370 C.ar    1  UNL1       -0.0610
     23 C          -8.1280   55.2410   54.0210 C.ar    1  UNL1       -0.0617
     24 C          -8.8600   54.3440   53.2080 C.ar    1  UNL1       -0.0610
     25 C          -8.8010   54.4780   51.8090 C.ar    1  UNL1       -0.0496
     26 C         -13.3460   56.3600   47.0400 C.ar    1  UNL1       -0.0188
     27 O         -14.6120   57.2860   48.8730 O.3     1  UNL1       -0.4549
     28 BR        -14.0950   60.2100   49.5160 Br      1  UNL1       -0.0465
     29 H          -9.6668   55.0249   45.8667 H       1  UNL1        0.0644
     30 H          -8.5735   53.8622   49.4958 H       1  UNL1        0.1553
     31 H         -12.1354   55.3921   45.5740 H       1  UNL1        0.0625
     32 H         -10.3304   55.9514   49.3170 H       1  UNL1        0.0625
     33 H         -12.3403   56.9232   50.1727 H       1  UNL1        0.0654
     34 H         -14.5981   60.1219   52.4529 H       1  UNL1        0.0630
     35 H         -15.5076   58.4225   53.9473 H       1  UNL1        0.0618
     36 H         -16.0247   56.1881   53.0977 H       1  UNL1        0.0619
     37 H         -15.5417   55.6456   50.7761 H       1  UNL1        0.0655
     38 H          -8.2292   54.8078   45.1459 H       1  UNL1        0.2954
     39 H          -6.6801   57.1183   51.6097 H       1  UNL1        0.0625
     40 H          -6.7465   56.8651   54.0374 H       1  UNL1        0.0618
     41 H          -8.1886   55.1653   55.0484 H       1  UNL1        0.0618
     42 H          -9.4313   53.5992   53.6368 H       1  UNL1        0.0618
     43 H          -9.3046   53.8100   51.2047 H       1  UNL1        0.0625
     44 H         -14.1482   56.5096   46.4083 H       1  UNL1        0.0654
@<TRIPOS>BOND
     1     1     2    2
     2     2     3    1
     3     3     4   am
     4     4     5    2
     5     1     6    1
     6     6     7   ar
     7     6     9   ar
     8     8    10   ar
     9     9    10   ar
    10    11    12   ar
    11    12    13   ar
    12    13    14   ar
    13    14    15   ar
    14    11    16   ar
    15    15    16   ar
    16     2    17    1
    17    17    18    1
    18    17    19    2
    19     4    20    1
    20    20    21   ar
    21    21    22   ar
    22    22    23   ar
    23    23    24   ar
    24    20    25   ar
    25    24    25   ar
    26     7    26   ar
    27     8    26   ar
    28     8    27    1
    29    11    27    1
    30    12    28    1
    31     1    29    1
    32     3    30    1
    33     7    31    1
    34     9    32    1
    35    10    33    1
    36    13    34    1
    37    14    35    1
    38    15    36    1
    39    16    37    1
    40    18    38    1
    41    21    39    1
    42    22    40    1
    43    23    41    1
    44    24    42    1
    45    25    43    1
    46    26    44    1
