@<TRIPOS>MOLECULE
1IG3_VIB_B_501
 35 36 0 0 0
SMALL
GASTEIGER

@<TRIPOS>ATOM
      1 C          19.3390   39.6510   23.0300 C.3     1  UNL1       -0.0046
      2 N          23.9870   39.0710   21.4980 N.pl3   1  UNL1       -0.3427
      3 C          25.6750   40.2260   16.9580 C.3     1  UNL1        0.0216
      4 O          28.1250   44.5160   15.9890 O.3     1  UNL1       -0.3947
      5 C          27.0400   44.1140   16.8020 C.3     1  UNL1        0.0489
      6 C          27.3760   42.7450   17.4460 C.3     1  UNL1        0.0079
      7 C          24.3100   42.1240   19.7210 C.ar    1  UNL1        0.2109
      8 S          25.5530   43.3650   19.6040 S.2     1  UNL1       -0.0273
      9 C          26.1650   42.3590   18.2430 C.ar    1  UNL1        0.0636
     10 C          25.3950   41.2550   18.0460 C.ar    1  UNL1        0.1915
     11 N          24.4090   41.1850   18.8730 N.ar    1  UNL1       -0.1903
     12 C          23.4190   40.0960   18.8720 C.3     1  UNL1        0.1811
     13 C          22.6750   39.4700   21.2150 C.ar    1  UNL1        0.1289
     14 N          21.6930   39.3680   22.2080 N.ar    1  UNL1       -0.2176
     15 C          20.3740   39.7670   21.9510 C.ar    1  UNL1        0.1280
     16 N          20.0340   40.2820   20.6810 N.ar    1  UNL1       -0.2400
     17 C          21.0180   40.3880   19.6760 C.ar    1  UNL1        0.0421
     18 C          22.3520   39.9850   19.9420 C.ar    1  UNL1        0.0747
     19 H          19.7870   39.2421   23.9115 H       1  UNL1        0.0308
     20 H          18.5500   39.0081   22.6998 H       1  UNL1        0.0308
     21 H          18.9415   40.6201   23.2486 H       1  UNL1        0.0308
     22 H          24.2114   38.7117   22.3867 H       1  UNL1        0.1437
     23 H          24.6851   39.1497   20.8083 H       1  UNL1        0.1437
     24 H          26.5477   40.5145   16.4103 H       1  UNL1        0.0336
     25 H          24.8381   40.1730   16.2934 H       1  UNL1        0.0336
     26 H          25.8358   39.2678   17.4062 H       1  UNL1        0.0336
     27 H          27.9235   45.3728   15.5813 H       1  UNL1        0.2094
     28 H          26.1575   44.0227   16.2039 H       1  UNL1        0.0560
     29 H          26.8704   44.8428   17.5669 H       1  UNL1        0.0560
     30 H          28.2297   42.8335   18.0849 H       1  UNL1        0.0343
     31 H          27.6108   42.0090   16.7057 H       1  UNL1        0.0343
     32 H          23.5573   42.1575   20.4262 H       1  UNL1        0.1462
     33 H          23.9764   39.1834   18.9080 H       1  UNL1        0.1087
     34 H          22.8416   40.3157   17.9984 H       1  UNL1        0.1087
     35 H          20.7673   40.7591   18.7462 H       1  UNL1        0.0836
@<TRIPOS>UNITY_ATOM_ATTR
11 1
charge 1
@<TRIPOS>BOND
     1     4     5    1
     2     5     6    1
     3     7     8   ar
     4     6     9    1
     5     8     9   ar
     6     3    10    1
     7     9    10   ar
     8     7    11   ar
     9    10    11   ar
    10    11    12    1
    11     2    13    1
    12    13    14   ar
    13     1    15    1
    14    14    15   ar
    15    15    16   ar
    16    16    17   ar
    17    12    18    1
    18    13    18   ar
    19    17    18   ar
    20     1    19    1
    21     1    20    1
    22     1    21    1
    23     2    22    1
    24     2    23    1
    25     3    24    1
    26     3    25    1
    27     3    26    1
    28     4    27    1
    29     5    28    1
    30     5    29    1
    31     6    30    1
    32     6    31    1
    33     7    32    1
    34    12    33    1
    35    12    34    1
    36    17    35    1
