@<TRIPOS>MOLECULE
1IG3_VIB_B_501
 35 36 0 0 0
SMALL
GASTEIGER

@<TRIPOS>ATOM
      1 C          -4.2048    0.7295   -3.2024 C.3     1  UNL1       -0.0046
      2 N          -1.9053    2.0537    0.8728 N.pl3   1  UNL1       -0.3427
      3 C           0.5492   -1.8470   -0.5090 C.3     1  UNL1        0.0216
      4 O           3.6028   -2.9171    0.5481 O.3     1  UNL1       -0.3947
      5 C           4.2966   -1.7011    0.5053 C.3     1  UNL1        0.0489
      6 C           3.4223   -0.6121   -0.1164 C.3     1  UNL1        0.0079
      7 C           0.5939    0.4002    2.4282 C.ar    1  UNL1        0.2109
      8 S           2.2136    0.6535    2.0791 S.2     1  UNL1       -0.0273
      9 C           2.2059   -0.3393    0.7237 C.ar    1  UNL1        0.0636
     10 C           0.9206   -0.8836    0.5866 C.ar    1  UNL1        0.1915
     11 N           0.0207   -0.4282    1.5202 N.ar    1  UNL1       -0.1903
     12 C          -1.3991   -0.8102    1.6020 C.3     1  UNL1        0.1811
     13 C          -2.3618    0.9890    0.0341 C.ar    1  UNL1        0.1289
     14 N          -3.0182    1.3037   -1.1143 N.ar    1  UNL1       -0.2176
     15 C          -3.5251    0.3452   -1.9309 C.ar    1  UNL1        0.1280
     16 N          -3.3709   -0.9642   -1.6116 N.ar    1  UNL1       -0.2400
     17 C          -2.7208   -1.3363   -0.4806 C.ar    1  UNL1        0.0421
     18 C          -2.1710   -0.3693    0.3754 C.ar    1  UNL1        0.0747
     19 H          -4.9744   -0.0255   -3.4688 H       1  UNL1        0.0308
     20 H          -4.7001    1.7170   -3.0888 H       1  UNL1        0.0308
     21 H          -3.4549    0.7894   -4.0183 H       1  UNL1        0.0308
     22 H          -1.5888    1.8940    1.8517 H       1  UNL1        0.1437
     23 H          -1.9894    3.0419    0.5465 H       1  UNL1        0.1437
     24 H           0.0809   -1.2923   -1.3481 H       1  UNL1        0.0336
     25 H           1.4330   -2.3936   -0.8918 H       1  UNL1        0.0336
     26 H          -0.1530   -2.6143   -0.1275 H       1  UNL1        0.0336
     27 H           4.2205   -3.5716    0.9662 H       1  UNL1        0.2094
     28 H           5.2149   -1.8187   -0.1119 H       1  UNL1        0.0560
     29 H           4.5986   -1.3988    1.5336 H       1  UNL1        0.0560
     30 H           3.1361   -0.8936   -1.1513 H       1  UNL1        0.0343
     31 H           4.0183    0.3226   -0.1906 H       1  UNL1        0.0343
     32 H           0.0719    0.8394    3.2686 H       1  UNL1        0.1462
     33 H          -1.8769   -0.3631    2.5010 H       1  UNL1        0.1087
     34 H          -1.4685   -1.9102    1.7450 H       1  UNL1        0.1087
     35 H          -2.6198   -2.3908   -0.2592 H       1  UNL1        0.0836
@<TRIPOS>UNITY_ATOM_ATTR
11 1
charge 1
@<TRIPOS>BOND
     1     4     5    1
     2     5     6    1
     3     7     8   ar
     4     6     9    1
     5     8     9   ar
     6     3    10    1
     7     9    10   ar
     8     7    11   ar
     9    10    11   ar
    10    11    12    1
    11     2    13    1
    12    13    14   ar
    13     1    15    1
    14    14    15   ar
    15    15    16   ar
    16    16    17   ar
    17    12    18    1
    18    13    18   ar
    19    17    18   ar
    20     1    19    1
    21     1    20    1
    22     1    21    1
    23     2    22    1
    24     2    23    1
    25     3    24    1
    26     3    25    1
    27     3    26    1
    28     4    27    1
    29     5    28    1
    30     5    29    1
    31     6    30    1
    32     6    31    1
    33     7    32    1
    34    12    33    1
    35    12    34    1
    36    17    35    1
