1IG3_VIB_B_501
     RDKit          3D

 18 19  0  0  0  0  0  0  0  0999 V2000
   19.3390   39.6510   23.0300 C   0  0  0  0  0  0  0  0  0  0  0  0
   23.9870   39.0710   21.4980 N   0  0  0  0  0  0  0  0  0  0  0  0
   25.6750   40.2260   16.9580 C   0  0  0  0  0  0  0  0  0  0  0  0
   28.1250   44.5160   15.9890 O   0  0  0  0  0  0  0  0  0  0  0  0
   27.0400   44.1140   16.8020 C   0  0  0  0  0  0  0  0  0  0  0  0
   27.3760   42.7450   17.4460 C   0  0  0  0  0  0  0  0  0  0  0  0
   24.3100   42.1240   19.7210 C   0  0  0  0  0  0  0  0  0  0  0  0
   25.5530   43.3650   19.6040 S   0  0  0  0  0  0  0  0  0  0  0  0
   26.1650   42.3590   18.2430 C   0  0  0  0  0  0  0  0  0  0  0  0
   25.3950   41.2550   18.0460 C   0  0  0  0  0  0  0  0  0  0  0  0
   24.4090   41.1850   18.8730 N   0  0  0  0  0  0  0  0  0  0  0  0
   23.4190   40.0960   18.8720 C   0  0  0  0  0  0  0  0  0  0  0  0
   22.6750   39.4700   21.2150 C   0  0  0  0  0  0  0  0  0  0  0  0
   21.6930   39.3680   22.2080 N   0  0  0  0  0  0  0  0  0  0  0  0
   20.3740   39.7670   21.9510 C   0  0  0  0  0  0  0  0  0  0  0  0
   20.0340   40.2820   20.6810 N   0  0  0  0  0  0  0  0  0  0  0  0
   21.0180   40.3880   19.6760 C   0  0  0  0  0  0  0  0  0  0  0  0
   22.3520   39.9850   19.9420 C   0  0  0  0  0  0  0  0  0  0  0  0
  4  5  1  0
  5  6  1  0
  7  8  1  0
  6  9  1  0
  8  9  1  0
  3 10  1  0
  9 10  2  0
  7 11  2  0
 10 11  1  0
 11 12  1  0
  2 13  1  0
 13 14  2  0
  1 15  1  0
 14 15  1  0
 15 16  2  0
 16 17  1  0
 12 18  1  0
 13 18  1  0
 17 18  2  0
M  CHG  1  11   1
M  END
$$$$
1IG3_VIB_A_502
     RDKit          3D

 18 19  0  0  0  0  0  0  0  0999 V2000
    7.1840   69.6540   25.1800 C   0  0  0  0  0  0  0  0  0  0  0  0
    4.5780   71.4180   21.3770 N   0  0  0  0  0  0  0  0  0  0  0  0
    6.4560   72.3450   16.8510 C   0  0  0  0  0  0  0  0  0  0  0  0
    5.8850   69.7960   12.8260 O   0  0  0  0  0  0  0  0  0  0  0  0
    6.1380   69.4270   14.1750 C   0  0  0  0  0  0  0  0  0  0  0  0
    5.1760   70.2160   15.0680 C   0  0  0  0  0  0  0  0  0  0  0  0
    5.9810   69.3240   18.7580 C   0  0  0  0  0  0  0  0  0  0  0  0
    5.2670   68.4520   17.3830 S   0  0  0  0  0  0  0  0  0  0  0  0
    5.5450   70.0050   16.5190 C   0  0  0  0  0  0  0  0  0  0  0  0
    6.1110   70.9390   17.3250 C   0  0  0  0  0  0  0  0  0  0  0  0
    6.3190   70.5140   18.5200 N   0  0  0  0  0  0  0  0  0  0  0  0
    6.9170   71.3440   19.5880 C   0  0  0  0  0  0  0  0  0  0  0  0
    5.8140   70.9600   21.8770 C   0  0  0  0  0  0  0  0  0  0  0  0
    5.8980   70.5530   23.2190 N   0  0  0  0  0  0  0  0  0  0  0  0
    7.1050   70.0910   23.7500 C   0  0  0  0  0  0  0  0  0  0  0  0
    8.2450   70.0410   22.9310 N   0  0  0  0  0  0  0  0  0  0  0  0
    8.1760   70.4470   21.5840 C   0  0  0  0  0  0  0  0  0  0  0  0
    6.9680   70.9110   21.0450 C   0  0  0  0  0  0  0  0  0  0  0  0
  4  5  1  0
  5  6  1  0
  7  8  1  0
  6  9  1  0
  8  9  1  0
  3 10  1  0
  9 10  2  0
  7 11  2  0
 10 11  1  0
 11 12  1  0
  2 13  1  0
 13 14  2  0
  1 15  1  0
 14 15  1  0
 15 16  2  0
 16 17  1  0
 12 18  1  0
 13 18  1  0
 17 18  2  0
M  CHG  1  11   1
M  END
$$$$
