
     RDKit          3D

 28 30  0  0  0  0  0  0  0  0999 V2000
   39.3431   36.2614   21.5114 C   0  0  2  0  0  0  0  0  0  0  0  0
   35.2130   36.4358   20.1938 C   0  0  0  0  0  0  0  0  0  0  0  0
   40.6382   35.7723   22.1777 C   0  0  1  0  0  0  0  0  0  0  0  0
   41.5079   35.4402   20.9776 C   0  0  1  0  0  0  0  0  0  0  0  0
   37.0448   35.4560   20.9482 C   0  0  0  0  0  0  0  0  0  0  0  0
   41.0993   36.5326   19.9961 C   0  0  1  0  0  0  0  0  0  0  0  0
   36.4314   34.2145   20.9888 C   0  0  0  0  0  0  0  0  0  0  0  0
   41.4064   36.1759   18.5414 C   0  0  0  0  0  0  0  0  0  0  0  0
   35.0858   34.1607   20.5848 C   0  0  0  0  0  0  0  0  0  0  0  0
   38.4355   33.9014   21.6666 C   0  0  0  0  0  0  0  0  0  0  0  0
   34.4869   35.3006   20.1721 N   0  0  0  0  0  0  0  0  0  0  0  0
   36.4975   36.6223   20.5674 N   0  0  0  0  0  0  0  0  0  0  0  0
   34.3444   32.9895   20.5880 N   0  0  0  0  0  0  0  0  0  0  0  0
   37.3121   33.2524   21.4332 N   0  0  0  0  0  0  0  0  0  0  0  0
   38.3193   35.2380   21.3994 N   0  0  0  0  0  0  0  0  0  0  0  0
   39.8954   35.0884   15.7178 O   0  0  0  0  0  0  0  0  0  0  0  0
   42.2273   32.8940   14.3413 O   0  0  0  0  0  0  0  0  0  0  0  0
   41.2856   36.8296   22.9113 O   0  0  0  0  0  0  0  0  0  0  0  0
   40.7019   32.8975   16.7700 O   0  0  0  0  0  0  0  0  0  0  0  0
   44.3655   33.1479   15.5513 O   0  0  0  0  0  0  0  0  0  0  0  0
   42.8976   35.4771   21.2990 O   0  0  0  0  0  0  0  0  0  0  0  0
   42.4176   34.6166   16.2545 O   0  0  0  0  0  0  0  0  0  0  0  0
   43.6745   35.0157   14.0160 O   0  0  0  0  0  0  0  0  0  0  0  0
   39.6864   36.7318   20.1837 O   0  0  0  0  0  0  0  0  0  0  0  0
   40.8008   34.9481   18.1807 O   0  0  0  0  0  0  0  0  0  0  0  0
   40.8964   34.4862   16.6467 P   0  0  1  0  0  5  0  0  0  0  0  0
   43.1501   34.0150   14.9917 P   0  0  0  0  0  5  0  0  0  0  0  0
   34.3976   37.8440   19.6642 Cl  0  0  0  0  0  0  0  0  0  0  0  0
  1  3  1  0
  3  4  1  0
  4  6  1  0
  5  7  4  0
  6  8  1  6
  7  9  4  0
  2 11  4  0
  9 11  4  0
  2 12  4  0
  5 12  4  0
  9 13  1  0
  7 14  4  0
 10 14  4  0
  5 15  4  0
  1 15  1  6
 10 15  4  0
  3 18  1  6
  4 21  1  1
  6 24  1  0
  1 24  1  0
  8 25  1  0
 16 26  2  0
 22 26  1  0
 26 19  1  1
 25 26  1  0
 23 27  2  0
 17 27  1  0
 22 27  1  0
 20 27  1  0
  2 28  1  0
M  END
