7UJ4_OQ4_B_601
     RDKit          3D

 91 95  0  0  0  0  0  0  0  0999 V2000
   -8.1297    2.7499    8.6099 C   0  0  0  0  0  0  0  0  0  0  0  0
   -7.4599    4.0604    9.0450 C   0  0  1  0  0  0  0  0  0  0  0  0
   -6.2857    3.7920    9.9942 C   0  0  0  0  0  0  0  0  0  0  0  0
   -7.0388    4.8560    7.8699 N   0  0  0  0  0  0  0  0  0  0  0  0
   -7.9855    5.0714    6.7656 C   0  0  0  0  0  0  0  0  0  0  0  0
   -7.4123    4.5838    5.4343 C   0  0  0  0  0  0  0  0  0  0  0  0
   -5.7503    5.5024    7.8160 C   0  0  0  0  0  0  0  0  0  0  0  0
   -5.5972    6.6439    8.3335 O   0  0  0  0  0  0  0  0  0  0  0  0
   -4.6211    4.8715    7.0979 C   0  0  0  0  0  0  0  0  0  0  0  0
   -4.7975    3.6082    6.5083 C   0  0  0  0  0  0  0  0  0  0  0  0
   -3.7438    2.9929    5.8215 C   0  0  0  0  0  0  0  0  0  0  0  0
   -3.9221    1.7706    5.2538 F   0  0  0  0  0  0  0  0  0  0  0  0
   -2.5104    3.6373    5.7105 C   0  0  0  0  0  0  0  0  0  0  0  0
   -2.3175    4.8876    6.3013 C   0  0  0  0  0  0  0  0  0  0  0  0
   -3.3626    5.5108    7.0152 C   0  0  0  0  0  0  0  0  0  0  0  0
   -3.1829    6.7704    7.6183 O   0  0  0  0  0  0  0  0  0  0  0  0
   -4.0022    7.2941    8.6278 C   0  0  0  0  0  0  0  0  0  0  0  0
   -3.9791    8.6648    8.8890 C   0  0  0  0  0  0  0  0  0  0  0  0
   -4.7096    9.1761    9.9157 N   0  0  0  0  0  0  0  0  0  0  0  0
   -5.4763    8.3717   10.6950 C   0  0  0  0  0  0  0  0  0  0  0  0
   -5.5450    7.0386   10.4354 N   0  0  0  0  0  0  0  0  0  0  0  0
   -4.8435    6.4843    9.4109 C   0  0  0  0  0  0  0  0  0  0  0  0
   -5.0264    5.1012    9.0994 N   0  0  0  0  0  0  0  0  0  0  0  0
   -6.0711    4.2724    8.4645 C   0  0  0  0  0  0  0  0  0  0  0  0
   -4.3667    3.8148    9.3996 C   0  0  0  0  0  0  0  0  0  0  0  0
   -5.3969    2.9510    8.7229 C   0  0  1  0  0  0  0  0  0  0  0  0
   -6.1584    2.0014    9.6604 C   0  0  0  0  0  0  0  0  0  0  0  0
   -7.2819    1.3007    8.8877 C   0  0  0  0  0  0  0  0  0  0  0  0
   -4.9119    2.2388    7.4512 C   0  0  0  0  0  0  0  0  0  0  0  0
   -6.0952    1.5385    6.7678 C   0  0  0  0  0  0  0  0  0  0  0  0
   -6.7642    0.5886    7.6945 N   0  0  0  0  0  0  0  0  0  0  0  0
   -7.9022   -0.0979    7.0303 C   0  0  0  0  0  0  0  0  0  0  0  0
   -7.7604   -0.1659    5.4922 C   0  0  1  0  0  0  0  0  0  0  0  0
   -8.2953    1.1170    4.8016 C   0  0  0  0  0  0  0  0  0  0  0  0
   -7.5741    1.4568    3.4775 C   0  0  0  0  0  0  0  0  0  0  0  0
   -6.2982   -0.4365    5.0962 C   0  0  0  0  0  0  0  0  0  0  0  0
   -6.1625   -0.6768    3.5784 C   0  0  0  0  0  0  0  0  0  0  0  0
   -7.1174    0.2021    2.7101 C   0  0  1  0  0  0  0  0  0  0  0  0
   -8.3082   -0.5427    2.2537 N   0  0  0  0  0  0  0  0  0  0  0  0
   -9.1710   -1.2652    3.5777 S   0  0  2  0  0  6  0  0  0  0  0  0
   -9.1360   -2.7657    3.4394 O   0  0  0  0  0  0  0  0  0  0  0  0
  -10.6004   -0.7976    3.5317 O   0  0  0  0  0  0  0  0  0  0  0  0
   -8.4512   -0.7923    5.1461 C   0  0  0  0  0  0  0  0  0  0  0  0
   -7.3449    0.2356    4.9454 C   0  0  0  0  0  0  0  0  0  0  0  0
   -8.4657    2.1765    9.5066 H   0  0  0  0  0  0  0  0  0  0  0  0
   -9.0214    2.9795    7.9836 H   0  0  0  0  0  0  0  0  0  0  0  0
   -7.4246    2.1176    8.0248 H   0  0  0  0  0  0  0  0  0  0  0  0
   -8.2167    4.6351    9.6299 H   0  0  0  0  0  0  0  0  0  0  0  0
   -6.6697    3.3931   10.9603 H   0  0  0  0  0  0  0  0  0  0  0  0
   -5.5813    3.0450    9.5667 H   0  0  0  0  0  0  0  0  0  0  0  0
   -5.7352    4.7406   10.1992 H   0  0  0  0  0  0  0  0  0  0  0  0
   -8.9274    4.5203    6.9780 H   0  0  0  0  0  0  0  0  0  0  0  0
   -8.2500    6.1529    6.6823 H   0  0  0  0  0  0  0  0  0  0  0  0
   -6.5612    5.2220    5.1243 H   0  0  0  0  0  0  0  0  0  0  0  0
   -7.0700    3.5251    5.5143 H   0  0  0  0  0  0  0  0  0  0  0  0
   -8.1974    4.6471    4.6501 H   0  0  0  0  0  0  0  0  0  0  0  0
   -5.7456    3.0921    6.5823 H   0  0  0  0  0  0  0  0  0  0  0  0
   -1.7001    3.1742    5.1636 H   0  0  0  0  0  0  0  0  0  0  0  0
   -1.3525    5.3708    6.1879 H   0  0  0  0  0  0  0  0  0  0  0  0
   -3.3597    9.3190    8.2906 H   0  0  0  0  0  0  0  0  0  0  0  0
   -6.0454    8.7902   11.5126 H   0  0  0  0  0  0  0  0  0  0  0  0
   -7.0401    4.3954    9.0015 H   0  0  0  0  0  0  0  0  0  0  0  0
   -6.1779    4.5146    7.3868 H   0  0  0  0  0  0  0  0  0  0  0  0
   -4.2978    3.6578   10.5015 H   0  0  0  0  0  0  0  0  0  0  0  0
   -3.3621    3.7671    8.9161 H   0  0  0  0  0  0  0  0  0  0  0  0
   -6.5906    2.5560   10.5225 H   0  0  0  0  0  0  0  0  0  0  0  0
   -5.4532    1.2430   10.0665 H   0  0  0  0  0  0  0  0  0  0  0  0
   -8.0508    2.0522    8.5916 H   0  0  0  0  0  0  0  0  0  0  0  0
   -7.7624    0.5754    9.5854 H   0  0  0  0  0  0  0  0  0  0  0  0
   -4.4466    2.9611    6.7423 H   0  0  0  0  0  0  0  0  0  0  0  0
   -4.1438    1.4790    7.7243 H   0  0  0  0  0  0  0  0  0  0  0  0
   -6.8168    2.2958    6.3838 H   0  0  0  0  0  0  0  0  0  0  0  0
   -5.6700    1.0022    5.8964 H   0  0  0  0  0  0  0  0  0  0  0  0
   -8.8661    0.4039    7.2890 H   0  0  0  0  0  0  0  0  0  0  0  0
   -7.9707   -1.1475    7.4025 H   0  0  0  0  0  0  0  0  0  0  0  0
   -8.3467   -1.0401    5.1365 H   0  0  0  0  0  0  0  0  0  0  0  0
   -8.1977    1.9968    5.4762 H   0  0  0  0  0  0  0  0  0  0  0  0
   -9.3785    0.9811    4.6009 H   0  0  0  0  0  0  0  0  0  0  0  0
   -6.6814    2.0794    3.7028 H   0  0  0  0  0  0  0  0  0  0  0  0
   -8.2465    2.0692    2.8379 H   0  0  0  0  0  0  0  0  0  0  0  0
   -5.6665    0.4312    5.3896 H   0  0  0  0  0  0  0  0  0  0  0  0
   -5.9110   -1.3303    5.6377 H   0  0  0  0  0  0  0  0  0  0  0  0
   -6.3259   -1.7570    3.3691 H   0  0  0  0  0  0  0  0  0  0  0  0
   -5.1117   -0.4577    3.2905 H   0  0  0  0  0  0  0  0  0  0  0  0
   -6.5332    0.5676    1.8343 H   0  0  0  0  0  0  0  0  0  0  0  0
   -8.9737    0.0804    1.7467 H   0  0  0  0  0  0  0  0  0  0  0  0
   -9.2363   -0.3592    5.8022 H   0  0  0  0  0  0  0  0  0  0  0  0
   -8.0294   -1.6908    5.6473 H   0  0  0  0  0  0  0  0  0  0  0  0
   -6.9145    0.5098    5.9347 H   0  0  0  0  0  0  0  0  0  0  0  0
   -7.7462    1.1519    4.4642 H   0  0  0  0  0  0  0  0  0  0  0  0
   -6.5371   -0.1914    4.3113 H   0  0  0  0  0  0  0  0  0  0  0  0
  1  2  1  0
  2  3  1  0
  2  4  1  0
  4  5  1  0
  5  6  1  0
  4  7  1  0
  7  8  2  0
  7  9  1  0
  9 10  4  0
 10 11  4  0
 11 12  1  0
 11 13  4  0
 13 14  4  0
  9 15  4  0
 14 15  4  0
 15 16  1  0
 16 17  1  0
 17 18  4  0
 18 19  4  0
 19 20  4  0
 20 21  4  0
 21 22  4  0
 17 22  4  0
 22 23  1  0
 23 24  1  0
 23 25  1  0
 26 24  1  6
 25 26  1  0
 26 27  1  0
 27 28  1  0
 26 29  1  0
 29 30  1  0
 30 31  1  0
 28 31  1  0
 31 32  1  0
 33 32  1  0
 33 34  1  0
 34 35  1  0
 33 36  1  0
 36 37  1  0
 37 38  1  0
 35 38  1  0
 38 39  1  0
 40 39  1  6
 40 41  2  0
 40 42  2  0
 40 43  1  0
 43 44  1  0
  1 45  1  0
  1 46  1  0
  1 47  1  0
  2 48  1  1
  3 49  1  0
  3 50  1  0
  3 51  1  0
  5 52  1  0
  5 53  1  0
  6 54  1  0
  6 55  1  0
  6 56  1  0
 10 57  1  0
 13 58  1  0
 14 59  1  0
 18 60  1  0
 20 61  1  0
 24 62  1  0
 24 63  1  0
 25 64  1  0
 25 65  1  0
 27 66  1  0
 27 67  1  0
 28 68  1  0
 28 69  1  0
 29 70  1  0
 29 71  1  0
 30 72  1  0
 30 73  1  0
 32 74  1  0
 32 75  1  0
 33 76  1  6
 34 77  1  0
 34 78  1  0
 35 79  1  0
 35 80  1  0
 36 81  1  0
 36 82  1  0
 37 83  1  0
 37 84  1  0
 38 85  1  6
 39 86  1  0
 43 87  1  0
 43 88  1  0
 44 89  1  0
 44 90  1  0
 44 91  1  0
M  END
