7CD9_FVR_A_501
     RDKit          3D

 62 66  0  0  0  0  0  0  0  0999 V2000
   -0.2618    3.5514   -4.1361 C   0  0  0  0  0  0  0  0  0  0  0  0
    0.7821    3.7299   -3.0178 C   0  0  2  0  0  0  0  0  0  0  0  0
    2.0100    2.8294   -3.2894 C   0  0  0  0  0  0  0  0  0  0  0  0
    0.8072    2.5075   -0.7838 C   0  0  0  0  0  0  0  0  0  0  0  0
    0.8740    1.3966    1.3400 C   0  0  0  0  0  0  0  0  0  0  0  0
    2.0513    0.7831    0.9368 C   0  0  0  0  0  0  0  0  0  0  0  0
    2.5596    1.0318   -0.2907 C   0  0  0  0  0  0  0  0  0  0  0  0
    3.7180    0.3071   -0.4379 C   0  0  0  0  0  0  0  0  0  0  0  0
    4.3978   -1.6850   -3.0974 C   0  0  0  0  0  0  0  0  0  0  0  0
    3.6222   -1.0846   -2.0999 C   0  0  0  0  0  0  0  0  0  0  0  0
    2.7392   -0.0471   -2.4116 C   0  0  0  0  0  0  0  0  0  0  0  0
    2.6153    0.4099   -3.7342 C   0  0  0  0  0  0  0  0  0  0  0  0
    3.3912   -0.1982   -4.7386 C   0  0  0  0  0  0  0  0  0  0  0  0
    4.2724   -1.2361   -4.4251 C   0  0  0  0  0  0  0  0  0  0  0  0
    1.6534    1.5368   -4.0650 C   0  0  1  0  0  0  0  0  0  0  0  0
    0.1902    1.1124   -3.8205 C   0  0  0  0  0  0  0  0  0  0  0  0
    3.8527   -0.3759    0.7696 C   0  0  0  0  0  0  0  0  0  0  0  0
   -1.0331    2.8855    0.8347 C   0  0  0  0  0  0  0  0  0  0  0  0
   -1.3682    1.9009   -5.5299 C   0  0  0  0  0  0  0  0  0  0  0  0
    5.3603   -3.2974   -1.4230 C   0  0  0  0  0  0  0  0  0  0  0  0
    4.2234   -2.8308   -0.5528 C   0  0  0  0  0  0  0  0  0  0  0  0
    4.3962   -1.7262    0.2978 C   0  0  0  0  0  0  0  0  0  0  0  0
    3.3410   -1.2838    1.1014 C   0  0  0  0  0  0  0  0  0  0  0  0
    2.1055   -1.9351    1.0562 C   0  0  0  0  0  0  0  0  0  0  0  0
    1.9221   -3.0278    0.2045 C   0  0  0  0  0  0  0  0  0  0  0  0
    2.9746   -3.4729   -0.6015 C   0  0  0  0  0  0  0  0  0  0  0  0
   -0.7861    2.1647   -4.2049 N   0  0  0  0  0  0  0  0  0  0  0  0
    0.1945    3.4316   -1.7034 N   0  0  0  0  0  0  0  0  0  0  0  0
    0.2406    2.2497    0.4587 N   0  0  0  0  0  4  0  0  0  0  0  0
    1.9674    1.8818   -1.1550 N   0  0  0  0  0  0  0  0  0  0  0  0
    2.8300   -0.0813    1.6086 N   0  0  0  0  0  4  0  0  0  0  0  0
    0.4067    1.1669    2.4892 O   0  0  0  0  0  0  0  0  0  0  0  0
    5.2715   -2.7201   -2.7262 O   0  0  0  0  0  0  0  0  0  0  0  0
   -1.1089    4.2473   -3.9522 H   0  0  0  0  0  0  0  0  0  0  0  0
    0.2083    3.8502   -5.1019 H   0  0  0  0  0  0  0  0  0  0  0  0
    1.1079    4.7939   -3.0265 H   0  0  0  0  0  0  0  0  0  0  0  0
    2.5216    2.5971   -2.3314 H   0  0  0  0  0  0  0  0  0  0  0  0
    2.7464    3.4028   -3.8948 H   0  0  0  0  0  0  0  0  0  0  0  0
    4.3783    0.2761   -1.2942 H   0  0  0  0  0  0  0  0  0  0  0  0
    3.7069   -1.4229   -1.0750 H   0  0  0  0  0  0  0  0  0  0  0  0
    2.1533    0.3989   -1.6175 H   0  0  0  0  0  0  0  0  0  0  0  0
    3.3097    0.1249   -5.7689 H   0  0  0  0  0  0  0  0  0  0  0  0
    4.8441   -1.6837   -5.2248 H   0  0  0  0  0  0  0  0  0  0  0  0
    1.7330    1.7704   -5.1510 H   0  0  0  0  0  0  0  0  0  0  0  0
   -0.0099    0.1569   -4.3577 H   0  0  0  0  0  0  0  0  0  0  0  0
    0.0430    0.8865   -2.7435 H   0  0  0  0  0  0  0  0  0  0  0  0
    4.6603   -1.0514    1.0185 H   0  0  0  0  0  0  0  0  0  0  0  0
   -0.8654    3.9612    1.0528 H   0  0  0  0  0  0  0  0  0  0  0  0
   -1.4920    2.4152    1.7290 H   0  0  0  0  0  0  0  0  0  0  0  0
   -1.7724    2.7797    0.0119 H   0  0  0  0  0  0  0  0  0  0  0  0
   -0.5771    1.8590   -6.3108 H   0  0  0  0  0  0  0  0  0  0  0  0
   -1.9201    0.9366   -5.5177 H   0  0  0  0  0  0  0  0  0  0  0  0
   -2.1000    2.6948   -5.7950 H   0  0  0  0  0  0  0  0  0  0  0  0
    5.2932   -4.4011   -1.5225 H   0  0  0  0  0  0  0  0  0  0  0  0
    6.3513   -3.0705   -0.9736 H   0  0  0  0  0  0  0  0  0  0  0  0
    5.3479   -1.2112    0.3397 H   0  0  0  0  0  0  0  0  0  0  0  0
    3.4808   -0.4351    1.7582 H   0  0  0  0  0  0  0  0  0  0  0  0
    1.2896   -1.5915    1.6788 H   0  0  0  0  0  0  0  0  0  0  0  0
    0.9637   -3.5291    0.1678 H   0  0  0  0  0  0  0  0  0  0  0  0
    2.8159   -4.3190   -1.2584 H   0  0  0  0  0  0  0  0  0  0  0  0
   -0.6603    3.9524   -1.4055 H   0  0  0  0  0  0  0  0  0  0  0  0
    2.6833   -0.4514    2.5739 H   0  0  0  0  0  0  0  0  0  0  0  0
  1  2  1  0
  2  3  1  0
  5  6  4  0
  6  7  4  0
  7  8  4  0
  9 10  4  0
 10 11  4  0
 11 12  4  0
 12 13  4  0
 13 14  4  0
  9 14  4  0
  3 15  1  0
 15 12  1  0
 15 16  1  0
  8 17  4  0
 20 21  1  0
 21 22  4  0
 22 23  4  0
 23 24  4  0
 24 25  4  0
 21 26  4  0
 25 26  4  0
 19 27  1  0
  1 27  1  0
 16 27  1  0
  2 28  1  0
  4 28  1  0
  4 29  4  0
  5 29  4  0
 18 29  1  0
  7 30  4  0
  4 30  4  0
 17 31  4  0
  6 31  4  0
  5 32  2  0
  9 33  1  0
 20 33  1  0
  1 34  1  0
  1 35  1  0
  2 36  1  6
  3 37  1  0
  3 38  1  0
  8 39  1  0
 10 40  1  0
 11 41  1  0
 13 42  1  0
 14 43  1  0
 15 44  1  1
 16 45  1  0
 16 46  1  0
 17 47  1  0
 18 48  1  0
 18 49  1  0
 18 50  1  0
 19 51  1  0
 19 52  1  0
 19 53  1  0
 20 54  1  0
 20 55  1  0
 22 56  1  0
 23 57  1  0
 24 58  1  0
 25 59  1  0
 26 60  1  0
 28 61  1  0
 31 62  1  0
M  CHG  2  29   1  31   1
M  END
