1R1H_BIR_A_2001
     RDKit          3D

 29 30  0  0  0  0  0  0  0  0999 V2000
   26.6158   33.0856   39.2431 C   0  0  0  0  0  0  0  0  0  0  0  0
   26.7691   34.0329   38.0983 C   0  0  2  0  0  0  0  0  0  0  0  0
   26.5263   35.3892   38.5654 N   0  0  0  0  0  0  0  0  0  0  0  0
   25.6374   33.6289   36.7347 P   0  0  1  0  0  0  0  0  0  0  0  0
   24.2115   33.5765   37.2261 O   0  0  0  0  0  0  0  0  0  0  0  0
   25.7296   34.8774   35.5977 O   0  0  0  0  0  0  0  0  0  0  0  0
   26.0850   32.0333   35.9978 C   0  0  0  0  0  0  0  0  0  0  0  0
   25.0771   31.6358   34.9409 C   0  0  2  0  0  0  0  0  0  0  0  0
   24.0577   30.6954   35.4084 C   0  0  0  0  0  0  0  0  0  0  0  0
   24.2599   29.4668   35.6301 O   0  0  0  0  0  0  0  0  0  0  0  0
   22.7251   31.1908   35.6360 N   0  0  0  0  0  0  0  0  0  0  0  0
   21.7239   30.2766   36.1229 C   0  0  1  0  0  0  0  0  0  0  0  0
   20.6828   31.0777   36.9175 C   0  0  0  0  0  0  0  0  0  0  0  0
   21.0204   29.5715   35.0472 C   0  0  0  0  0  0  0  0  0  0  0  0
   20.2880   28.4367   35.3674 O   0  0  0  0  0  0  0  0  0  0  0  0
   21.0284   29.9205   33.8334 O   0  0  0  0  0  0  0  0  0  0  0  0
   25.7697   31.1935   33.6807 C   0  0  0  0  0  0  0  0  0  0  0  0
   24.8243   30.7654   32.6295 C   0  0  0  0  0  0  0  0  0  0  0  0
   25.2169   30.3243   31.3809 C   0  0  0  0  0  0  0  0  0  0  0  0
   24.2785   29.9366   30.4380 C   0  0  0  0  0  0  0  0  0  0  0  0
   22.9373   29.9969   30.7640 C   0  0  0  0  0  0  0  0  0  0  0  0
   22.5183   30.4356   32.0095 C   0  0  0  0  0  0  0  0  0  0  0  0
   23.4621   30.8213   32.9462 C   0  0  0  0  0  0  0  0  0  0  0  0
   21.8867   29.6024   29.8158 C   0  0  0  0  0  0  0  0  0  0  0  0
   20.5570   29.6699   30.1675 C   0  0  0  0  0  0  0  0  0  0  0  0
   19.5485   29.3035   29.2912 C   0  0  0  0  0  0  0  0  0  0  0  0
   19.8699   28.8570   28.0288 C   0  0  0  0  0  0  0  0  0  0  0  0
   21.1890   28.7935   27.6895 C   0  0  0  0  0  0  0  0  0  0  0  0
   22.2177   29.1576   28.5569 C   0  0  0  0  0  0  0  0  0  0  0  0
  2  1  1  1
  2  3  1  0
  2  4  1  0
  4  5  2  0
  4  6  1  6
  4  7  1  0
  8  7  1  1
  8  9  1  0
  9 10  2  0
  9 11  1  0
 11 12  1  0
 12 13  1  6
 12 14  1  0
 14 15  1  0
 14 16  2  0
  8 17  1  0
 17 18  1  0
 18 19  2  0
 19 20  1  0
 20 21  2  0
 21 22  1  0
 18 23  1  0
 22 23  2  0
 21 24  1  0
 24 25  2  0
 25 26  1  0
 26 27  2  0
 27 28  1  0
 24 29  1  0
 28 29  2  0
M  END
$$$$
