1R1H_BIR_A_2001
     RDKit          3D

 29 30  0  0  0  0  0  0  0  0999 V2000
   27.7860   42.1828   27.1012 C   0  0  0  0  0  0  0  0  0  0  0  0
   26.8993   41.0530   26.6903 C   0  0  2  0  0  0  0  0  0  0  0  0
   26.3653   41.3233   25.3643 N   0  0  0  0  0  0  0  0  0  0  0  0
   25.5416   40.7995   27.8719 P   0  0  1  0  0  0  0  0  0  0  0  0
   24.2180   40.7239   27.1511 O   0  0  0  0  0  0  0  0  0  0  0  0
   25.7855   39.3070   28.6288 O   0  0  0  0  0  0  0  0  0  0  0  0
   25.4990   42.1512   29.0803 C   0  0  0  0  0  0  0  0  0  0  0  0
   24.6024   41.7927   30.2457 C   0  0  2  0  0  0  0  0  0  0  0  0
   25.2268   40.9113   31.2333 C   0  0  0  0  0  0  0  0  0  0  0  0
   25.7957   39.8151   30.9613 O   0  0  0  0  0  0  0  0  0  0  0  0
   25.1985   41.3083   32.6170 N   0  0  0  0  0  0  0  0  0  0  0  0
   25.7951   40.4365   33.5964 C   0  0  1  0  0  0  0  0  0  0  0  0
   26.2172   41.2838   34.8051 C   0  0  0  0  0  0  0  0  0  0  0  0
   24.8764   39.3994   34.0756 C   0  0  0  0  0  0  0  0  0  0  0  0
   25.3822   38.3856   34.8774 O   0  0  0  0  0  0  0  0  0  0  0  0
   23.6420   39.3550   33.8122 O   0  0  0  0  0  0  0  0  0  0  0  0
   23.2660   41.3003   29.7609 C   0  0  0  0  0  0  0  0  0  0  0  0
   22.3866   40.8574   30.8620 C   0  0  0  0  0  0  0  0  0  0  0  0
   21.9512   39.5558   31.0172 C   0  0  0  0  0  0  0  0  0  0  0  0
   21.1259   39.2051   32.0735 C   0  0  0  0  0  0  0  0  0  0  0  0
   20.7415   40.1789   32.9749 C   0  0  0  0  0  0  0  0  0  0  0  0
   21.1647   41.4912   32.8410 C   0  0  0  0  0  0  0  0  0  0  0  0
   21.9893   41.8338   31.7829 C   0  0  0  0  0  0  0  0  0  0  0  0
   19.8683   39.8810   34.1184 C   0  0  0  0  0  0  0  0  0  0  0  0
   19.2604   40.8946   34.8251 C   0  0  0  0  0  0  0  0  0  0  0  0
   18.4333   40.6389   35.9066 C   0  0  0  0  0  0  0  0  0  0  0  0
   18.2031   39.3386   36.2978 C   0  0  0  0  0  0  0  0  0  0  0  0
   18.8093   38.3418   35.5921 C   0  0  0  0  0  0  0  0  0  0  0  0
   19.6445   38.5789   34.5015 C   0  0  0  0  0  0  0  0  0  0  0  0
  2  1  1  1
  2  3  1  0
  2  4  1  0
  4  5  2  0
  4  6  1  1
  4  7  1  0
  8  7  1  6
  8  9  1  0
  9 10  2  0
  9 11  1  0
 11 12  1  0
 12 13  1  1
 12 14  1  0
 14 15  1  0
 14 16  2  0
  8 17  1  0
 17 18  1  0
 18 19  2  0
 19 20  1  0
 20 21  2  0
 21 22  1  0
 18 23  1  0
 22 23  2  0
 21 24  1  0
 24 25  2  0
 25 26  1  0
 26 27  2  0
 27 28  1  0
 24 29  1  0
 28 29  2  0
M  END
$$$$
