1R1H_BIR_A_2001
     RDKit          3D

 29 30  0  0  0  0  0  0  0  0999 V2000
   27.7533   43.4496   34.8136 C   0  0  0  0  0  0  0  0  0  0  0  0
   28.5166   43.5984   33.5381 C   0  0  2  0  0  0  0  0  0  0  0  0
   28.8924   44.9935   33.3669 N   0  0  0  0  0  0  0  0  0  0  0  0
   27.5518   43.0301   32.1065 P   0  0  1  0  0  0  0  0  0  0  0  0
   26.4781   44.0318   31.7586 O   0  0  0  0  0  0  0  0  0  0  0  0
   28.5978   42.9366   30.7809 O   0  0  0  0  0  0  0  0  0  0  0  0
   26.7910   41.4220   32.4593 C   0  0  0  0  0  0  0  0  0  0  0  0
   25.8273   41.0380   31.3572 C   0  0  2  0  0  0  0  0  0  0  0  0
   24.4161   41.1766   31.7197 C   0  0  0  0  0  0  0  0  0  0  0  0
   23.8886   40.6847   32.7586 O   0  0  0  0  0  0  0  0  0  0  0  0
   23.5555   41.9235   30.8396 N   0  0  0  0  0  0  0  0  0  0  0  0
   22.1399   41.9352   31.1065 C   0  0  1  0  0  0  0  0  0  0  0  0
   21.6065   43.3473   30.8263 C   0  0  0  0  0  0  0  0  0  0  0  0
   21.3904   40.9982   30.2643 C   0  0  0  0  0  0  0  0  0  0  0  0
   20.2134   40.4561   30.7619 O   0  0  0  0  0  0  0  0  0  0  0  0
   21.7365   40.6397   29.1037 O   0  0  0  0  0  0  0  0  0  0  0  0
   26.1723   39.6874   30.7913 C   0  0  0  0  0  0  0  0  0  0  0  0
   27.2338   39.7518   29.7661 C   0  0  0  0  0  0  0  0  0  0  0  0
   27.3648   40.7900   28.8646 C   0  0  0  0  0  0  0  0  0  0  0  0
   28.3841   40.7902   27.9260 C   0  0  0  0  0  0  0  0  0  0  0  0
   29.2732   39.7330   27.9027 C   0  0  0  0  0  0  0  0  0  0  0  0
   29.1630   38.6801   28.7963 C   0  0  0  0  0  0  0  0  0  0  0  0
   28.1417   38.6871   29.7311 C   0  0  0  0  0  0  0  0  0  0  0  0
   30.3779   39.6652   26.9365 C   0  0  0  0  0  0  0  0  0  0  0  0
   30.5338   40.6370   25.9733 C   0  0  0  0  0  0  0  0  0  0  0  0
   31.5670   40.5948   25.0515 C   0  0  0  0  0  0  0  0  0  0  0  0
   32.4718   39.5572   25.0871 C   0  0  0  0  0  0  0  0  0  0  0  0
   32.3095   38.5998   26.0442 C   0  0  0  0  0  0  0  0  0  0  0  0
   31.2767   38.6248   26.9801 C   0  0  0  0  0  0  0  0  0  0  0  0
  2  1  1  1
  2  3  1  0
  2  4  1  0
  4  5  2  0
  4  6  1  6
  4  7  1  0
  8  7  1  1
  8  9  1  0
  9 10  2  0
  9 11  1  0
 11 12  1  0
 12 13  1  6
 12 14  1  0
 14 15  1  0
 14 16  2  0
  8 17  1  0
 17 18  1  0
 18 19  2  0
 19 20  1  0
 20 21  2  0
 21 22  1  0
 18 23  1  0
 22 23  2  0
 21 24  1  0
 24 25  2  0
 25 26  1  0
 26 27  2  0
 27 28  1  0
 24 29  1  0
 28 29  2  0
M  END
$$$$
