1R1H_BIR_A_2001
     RDKit          3D

 29 30  0  0  0  0  0  0  0  0999 V2000
   27.3603   35.8482   19.8076 C   0  0  0  0  0  0  0  0  0  0  0  0
   27.1333   36.4933   21.1356 C   0  0  2  0  0  0  0  0  0  0  0  0
   27.7412   37.8152   21.1342 N   0  0  0  0  0  0  0  0  0  0  0  0
   27.8118   35.4940   22.4938 P   0  0  1  0  0  0  0  0  0  0  0  0
   29.0960   36.0980   23.0069 O   0  0  0  0  0  0  0  0  0  0  0  0
   26.6993   35.5269   23.7670 O   0  0  0  0  0  0  0  0  0  0  0  0
   28.1202   33.7972   21.9327 C   0  0  0  0  0  0  0  0  0  0  0  0
   27.4467   32.8032   22.8543 C   0  0  2  0  0  0  0  0  0  0  0  0
   25.9872   32.7804   22.7475 C   0  0  0  0  0  0  0  0  0  0  0  0
   25.2213   33.6984   23.1598 O   0  0  0  0  0  0  0  0  0  0  0  0
   25.3658   31.6371   22.1312 N   0  0  0  0  0  0  0  0  0  0  0  0
   23.9294   31.6067   22.0261 C   0  0  1  0  0  0  0  0  0  0  0  0
   23.5449   30.5861   20.9456 C   0  0  0  0  0  0  0  0  0  0  0  0
   23.2720   31.2068   23.2739 C   0  0  0  0  0  0  0  0  0  0  0  0
   21.9384   31.5452   23.4579 O   0  0  0  0  0  0  0  0  0  0  0  0
   23.8319   30.5689   24.2091 O   0  0  0  0  0  0  0  0  0  0  0  0
   27.9434   32.9607   24.2657 C   0  0  0  0  0  0  0  0  0  0  0  0
   29.4055   33.1578   24.3381 C   0  0  0  0  0  0  0  0  0  0  0  0
   29.9994   34.3240   24.7799 C   0  0  0  0  0  0  0  0  0  0  0  0
   31.3790   34.4452   24.8232 C   0  0  0  0  0  0  0  0  0  0  0  0
   32.1580   33.3791   24.4168 C   0  0  0  0  0  0  0  0  0  0  0  0
   31.5864   32.1990   23.9697 C   0  0  0  0  0  0  0  0  0  0  0  0
   30.2070   32.0856   23.9293 C   0  0  0  0  0  0  0  0  0  0  0  0
   33.6260   33.4353   24.4350 C   0  0  0  0  0  0  0  0  0  0  0  0
   34.2839   34.6141   24.7070 C   0  0  0  0  0  0  0  0  0  0  0  0
   35.6669   34.6921   24.7298 C   0  0  0  0  0  0  0  0  0  0  0  0
   36.4185   33.5666   24.4750 C   0  0  0  0  0  0  0  0  0  0  0  0
   35.7584   32.4041   24.2067 C   0  0  0  0  0  0  0  0  0  0  0  0
   34.3682   32.3056   24.1792 C   0  0  0  0  0  0  0  0  0  0  0  0
  2  1  1  6
  2  3  1  0
  2  4  1  0
  4  5  2  0
  4  6  1  1
  4  7  1  0
  8  7  1  6
  8  9  1  0
  9 10  2  0
  9 11  1  0
 11 12  1  0
 12 13  1  6
 12 14  1  0
 14 15  1  0
 14 16  2  0
  8 17  1  0
 17 18  1  0
 18 19  2  0
 19 20  1  0
 20 21  2  0
 21 22  1  0
 18 23  1  0
 22 23  2  0
 21 24  1  0
 24 25  2  0
 25 26  1  0
 26 27  2  0
 27 28  1  0
 24 29  1  0
 28 29  2  0
M  END
$$$$
