7CNQ_G8X_A_602
     RDKit          3D

 18 18  0  0  0  0  0  0  0  0999 V2000
   -1.2464   13.2879   64.0705 O   0  0  0  0  0  0  0  0  0  0  0  0
   -0.9245   12.6842   62.1555 O   0  0  0  0  0  0  0  0  0  0  0  0
    1.7148   13.3264   63.9761 N   0  0  0  0  0  0  0  0  0  0  0  0
   -0.3845   14.4202   64.0607 C   0  0  1  0  0  0  0  0  0  0  0  0
    0.2656   14.6037   65.4191 C   0  0  0  0  0  0  0  0  0  0  0  0
    1.6140   13.8991   65.3331 C   0  0  0  0  0  0  0  0  0  0  0  0
    0.7428   14.0468   63.1294 C   0  0  2  0  0  0  0  0  0  0  0  0
    0.2201   13.1691   62.0329 C   0  0  0  0  0  0  0  0  0  0  0  0
    0.9765   12.8934   61.0718 O   0  0  0  0  0  0  0  0  0  0  0  0
   -2.0006   13.4607   64.6555 H   0  0  0  0  0  0  0  0  0  0  0  0
   -1.4563   12.9183   62.8907 H   0  0  0  0  0  0  0  0  0  0  0  0
    2.6588   13.4539   63.6115 H   0  0  0  0  0  0  0  0  0  0  0  0
   -0.9284   15.3004   63.7885 H   0  0  0  0  0  0  0  0  0  0  0  0
    0.4017   15.6440   65.6294 H   0  0  0  0  0  0  0  0  0  0  0  0
   -0.3402   14.2000   66.2032 H   0  0  0  0  0  0  0  0  0  0  0  0
    2.4061   14.5998   65.4961 H   0  0  0  0  0  0  0  0  0  0  0  0
    1.6941   13.1347   66.0775 H   0  0  0  0  0  0  0  0  0  0  0  0
    1.1924   14.8957   62.6580 H   0  0  0  0  0  0  0  0  0  0  0  0
  4  1  1  0
  4  5  1  0
  5  6  1  0
  3  6  1  0
  4  7  1  0
  3  7  1  0
  7  8  1  0
  2  8  1  0
  8  9  2  0
  1 10  1  0
  2 11  1  0
  3 12  1  0
  4 13  1  1
  5 14  1  0
  5 15  1  0
  6 16  1  0
  6 17  1  0
  7 18  1  1
M  END
