
     RDKit          3D

 28 31  0  0  0  0  0  0  0  0999 V2000
   15.0816  -23.4345   59.1790 C   0  0  0  0  0  0  0  0  0  0  0  0
   14.5418  -24.3032   58.0453 C   0  0  0  0  0  0  0  0  0  0  0  0
   14.2597  -23.4536   56.8000 C   0  0  0  0  0  0  0  0  0  0  0  0
   17.1471  -20.0172   57.5315 C   0  0  0  0  0  0  0  0  0  0  0  0
   17.6170  -21.3750   56.9906 C   0  0  0  0  0  0  0  0  0  0  0  0
   17.8962  -21.2360   55.4866 C   0  0  0  0  0  0  0  0  0  0  0  0
   16.5837  -22.5078   57.2811 C   0  0  0  0  0  0  0  0  0  0  0  0
   16.4010  -22.7558   58.8002 C   0  0  0  0  0  0  0  0  0  0  0  0
   15.2061  -22.2577   56.6406 C   0  0  0  0  0  0  0  0  0  0  0  0
   12.1381  -24.3813   58.6258 C   0  0  0  0  0  0  0  0  0  0  0  0
   10.9489  -25.2756   58.5135 C   0  0  0  0  0  0  0  0  0  0  0  0
   11.0165  -26.7293   58.6609 C   0  0  0  0  0  0  0  0  0  0  0  0
    9.9153  -27.4985   58.5466 C   0  0  0  0  0  0  0  0  0  0  0  0
    8.6577  -26.8949   58.2648 C   0  0  0  0  0  0  0  0  0  0  0  0
    6.6240  -26.3484   57.8349 C   0  0  0  0  0  0  0  0  0  0  0  0
    7.3403  -25.1687   57.8174 C   0  0  0  0  0  0  0  0  0  0  0  0
    9.7643  -24.7091   58.2127 C   0  0  0  0  0  0  0  0  0  0  0  0
    5.1948  -26.5039   57.5982 C   0  0  0  0  0  0  0  0  0  0  0  0
    4.3040  -25.4221   57.6541 C   0  0  0  0  0  0  0  0  0  0  0  0
    2.9373  -25.6095   57.4212 C   0  0  0  0  0  0  0  0  0  0  0  0
    2.4444  -26.8794   57.1297 C   0  0  0  0  0  0  0  0  0  0  0  0
    3.3160  -27.9635   57.0702 C   0  0  0  0  0  0  0  0  0  0  0  0
    4.6811  -27.7757   57.3028 C   0  0  0  0  0  0  0  0  0  0  0  0
   13.3447  -25.0193   58.4611 N   0  0  0  0  0  0  0  0  0  0  0  0
    7.4581  -27.4121   58.1164 N   0  0  0  0  0  0  0  0  0  0  0  0
    8.6380  -25.5162   58.0961 N   0  0  0  0  0  0  0  0  0  0  0  0
   18.8485  -21.7007   57.6417 O   0  0  0  0  0  0  0  0  0  0  0  0
   12.0200  -23.1877   58.8787 O   0  0  0  0  0  0  0  0  0  0  0  0
  1  2  1  0
  2  3  1  0
  4  5  1  0
  5  6  1  0
  7  5  1  0
  1  8  1  0
  7  8  1  0
  3  9  1  0
  7  9  1  0
 10 11  1  0
 11 12  4  0
 12 13  4  0
 13 14  4  0
 15 16  4  0
 11 17  4  0
 15 18  1  0
 18 19  4  0
 19 20  4  0
 20 21  4  0
 21 22  4  0
 22 23  4  0
 18 23  4  0
 10 24  1  0
  2 24  1  0
 15 25  4  0
 14 25  4  0
 16 26  4  0
 14 26  4  0
 17 26  4  0
  5 27  1  0
 10 28  2  0
M  END
