8B8H_OJQ_A_401
     RDKit          3D

 22 23  0  0  0  0  0  0  0  0999 V2000
   28.6026   -2.6770    0.2344 C   0  0  0  0  0  0  0  0  0  0  0  0
   27.2760   -2.4063    0.4989 C   0  0  0  0  0  0  0  0  0  0  0  0
   26.8708   -1.1443    0.9687 C   0  0  0  0  0  0  0  0  0  0  0  0
   27.8812   -0.2317    1.1364 C   0  0  0  0  0  0  0  0  0  0  0  0
   29.5624   -1.7070    0.4275 C   0  0  0  0  0  0  0  0  0  0  0  0
   26.7523   -4.7980    0.3386 N   0  0  0  0  0  0  0  0  0  0  0  0
   26.4751   -5.2938    1.6514 C   0  0  0  0  0  0  0  0  0  0  0  0
   27.3839   -5.7749    2.5927 C   0  0  0  0  0  0  0  0  0  0  0  0
   28.7586   -5.8386    2.3632 O   0  0  0  0  0  0  0  0  0  0  0  0
   25.2427   -5.4109    2.2882 C   0  0  0  0  0  0  0  0  0  0  0  0
   25.4231   -5.9169    3.4977 O   0  0  0  0  0  0  0  0  0  0  0  0
   26.6890   -6.1333    3.6797 N   0  0  0  0  0  0  0  0  0  0  0  0
   30.9841   -2.0238    0.1428 C   0  0  0  0  0  0  0  0  0  0  0  0
   26.2721   -3.4435    0.2958 C   0  0  0  0  0  0  0  0  0  0  0  0
   25.4589   -0.9542    1.2357 C   0  0  0  0  0  0  0  0  0  0  0  0
   29.1787   -0.4853    0.8813 N   0  0  0  0  0  0  0  0  0  0  0  0
   28.9198   -3.9582   -0.2288 O   0  0  0  0  0  0  0  0  0  0  0  0
   22.9423   -1.9769    4.2542 O   0  0  0  0  0  0  0  0  0  0  0  0
   23.0808    0.3904    2.8936 O   0  0  0  0  0  0  0  0  0  0  0  0
   22.5450   -1.7954    1.6659 O   0  0  0  0  0  0  0  0  0  0  0  0
   25.0109   -1.5574    2.3924 O   0  0  0  0  0  0  0  0  0  0  0  0
   23.4266   -1.2792    2.8067 P   0  0  2  0  0  0  0  0  0  0  0  0
  1  2  2  0
  2  3  1  0
  3  4  2  0
  1  5  1  0
  6  7  1  0
  7  8  1  0
  8  9  1  0
  7 10  2  0
 10 11  1  0
  8 12  2  0
 11 12  1  0
  5 13  1  0
  6 14  1  0
  2 14  1  0
  3 15  1  0
  5 16  2  0
  4 16  1  0
  1 17  1  0
 15 21  1  0
 20 22  2  0
 21 22  1  0
 22 18  1  1
 19 22  1  0
M  CHG  1   6   1
M  END
$$$$
