7CUO_PHB_B_306
     RDKit          3D

 10 10  0  0  0  0  0  0  0  0999 V2000
   17.4094    2.1412   77.4590 C   0  0  0  0  0  0  0  0  0  0  0  0
   17.7361    3.2899   77.8010 O   0  0  0  0  0  0  0  0  0  0  0  0
   17.0983    1.2301   78.2655 O   0  0  0  0  0  0  0  0  0  0  0  0
   17.4380    1.8308   75.9873 C   0  0  0  0  0  0  0  0  0  0  0  0
   17.4507    2.8580   75.0526 C   0  0  0  0  0  0  0  0  0  0  0  0
   17.5026    2.5867   73.6972 C   0  0  0  0  0  0  0  0  0  0  0  0
   17.5483    1.2726   73.2565 C   0  0  0  0  0  0  0  0  0  0  0  0
   17.5235    0.2403   74.1831 C   0  0  0  0  0  0  0  0  0  0  0  0
   17.4764    0.5213   75.5355 C   0  0  0  0  0  0  0  0  0  0  0  0
   17.6131    1.0037   71.9185 O   0  0  0  0  0  0  0  0  0  0  0  0
  1  2  2  0
  1  3  1  0
  1  4  1  0
  4  5  2  0
  5  6  1  0
  6  7  2  0
  7  8  1  0
  4  9  1  0
  8  9  2  0
  7 10  1  0
M  END
