8EAB_VN2_B_302
     RDKit          3D

 70 74  0  0  0  0  0  0  0  0999 V2000
    8.4369  -24.1177   30.3240 C   0  0  0  0  0  0  0  0  0  0  0  0
    9.6725  -24.3054   29.7001 C   0  0  0  0  0  0  0  0  0  0  0  0
    9.9348  -23.6831   28.4691 C   0  0  0  0  0  0  0  0  0  0  0  0
   11.2795  -23.8237   27.8565 C   0  0  0  0  0  0  0  0  0  0  0  0
   11.7512  -22.8664   26.9423 C   0  0  0  0  0  0  0  0  0  0  0  0
   13.0028  -23.0182   26.3385 C   0  0  0  0  0  0  0  0  0  0  0  0
   13.8213  -24.1141   26.6632 C   0  0  0  0  0  0  0  0  0  0  0  0
   13.3468  -25.0722   27.5750 C   0  0  0  0  0  0  0  0  0  0  0  0
   12.0932  -24.9230   28.1749 C   0  0  0  0  0  0  0  0  0  0  0  0
    6.3997  -20.4141   23.0264 C   0  0  0  0  0  0  0  0  0  0  0  0
   15.1463  -24.3156   25.9702 C   0  0  1  0  0  0  0  0  0  0  0  0
    9.5657  -19.9955   24.5689 C   0  0  0  0  0  0  0  0  0  0  0  0
   10.5115  -20.1938   23.5501 C   0  0  0  0  0  0  0  0  0  0  0  0
   11.6628  -19.4059   23.4945 C   0  0  0  0  0  0  0  0  0  0  0  0
   11.8785  -18.4072   24.4467 C   0  0  0  0  0  0  0  0  0  0  0  0
   10.9283  -18.1704   25.4554 C   0  0  0  0  0  0  0  0  0  0  0  0
    9.7864  -18.9881   25.5248 C   0  0  0  0  0  0  0  0  0  0  0  0
   11.1668  -17.1105   26.5008 C   0  0  2  0  0  0  0  0  0  0  0  0
    4.9694  -20.7636   23.1552 C   0  0  0  0  0  0  0  0  0  0  0  0
    4.2657  -20.3697   24.3039 C   0  0  0  0  0  0  0  0  0  0  0  0
    2.3127  -21.4943   23.5593 C   0  0  0  0  0  0  0  0  0  0  0  0
    2.9616  -21.8994   22.3922 C   0  0  0  0  0  0  0  0  0  0  0  0
    4.2959  -21.5262   22.1710 C   0  0  0  0  0  0  0  0  0  0  0  0
    8.3149  -20.8450   24.6223 C   0  0  1  0  0  0  0  0  0  0  0  0
    4.9375  -21.8809   20.8830 C   0  0  0  0  0  0  0  0  0  0  0  0
    4.3018  -22.7547   19.9884 C   0  0  0  0  0  0  0  0  0  0  0  0
    4.9151  -23.0963   18.7786 C   0  0  0  0  0  0  0  0  0  0  0  0
    6.1787  -22.5758   18.4474 C   0  0  0  0  0  0  0  0  0  0  0  0
    6.7898  -21.6639   19.3240 C   0  0  0  0  0  0  0  0  0  0  0  0
    6.1795  -21.3261   20.5345 C   0  0  0  0  0  0  0  0  0  0  0  0
    6.8242  -22.9113   17.1263 C   0  0  1  0  0  0  0  0  0  0  0  0
    8.1017  -21.4209   26.0038 C   0  0  0  0  0  0  0  0  0  0  0  0
    8.9202  -22.8973   27.8714 C   0  0  0  0  0  0  0  0  0  0  0  0
    7.7081  -22.7192   28.5518 C   0  0  0  0  0  0  0  0  0  0  0  0
   15.4678  -23.2084   25.2031 F   0  0  0  0  0  0  0  0  0  0  0  0
   16.1327  -24.5068   26.9204 F   0  0  0  0  0  0  0  0  0  0  0  0
   15.1019  -25.4213   25.1364 F   0  0  0  0  0  0  0  0  0  0  0  0
   10.1877  -17.1539   27.4794 F   0  0  0  0  0  0  0  0  0  0  0  0
   11.1481  -15.8649   25.9000 F   0  0  0  0  0  0  0  0  0  0  0  0
   12.3957  -17.3000   27.1105 F   0  0  0  0  0  0  0  0  0  0  0  0
    7.2356  -24.2327   17.1053 F   0  0  0  0  0  0  0  0  0  0  0  0
    5.9104  -22.7061   16.1089 F   0  0  0  0  0  0  0  0  0  0  0  0
    7.9322  -22.1105   16.9051 F   0  0  0  0  0  0  0  0  0  0  0  0
    7.4927  -23.3309   29.7459 N   0  0  0  0  0  0  0  0  0  0  0  0
    7.1646  -20.0450   24.1832 N   0  0  0  0  0  0  0  0  0  0  0  0
    2.9702  -20.7418   24.4787 N   0  0  0  0  0  0  0  0  0  0  0  0
    9.0978  -22.2759   26.5902 N   0  0  0  0  0  0  0  0  0  0  0  0
    6.9391  -20.4150   21.8853 O   0  0  0  0  0  0  0  0  0  0  0  0
    7.0169  -21.2108   26.6169 O   0  0  0  0  0  0  0  0  0  0  0  0
    8.2326  -24.5890   31.2762 H   0  0  0  0  0  0  0  0  0  0  0  0
   10.4283  -24.9102   30.1865 H   0  0  0  0  0  0  0  0  0  0  0  0
   11.1449  -22.0059   26.6883 H   0  0  0  0  0  0  0  0  0  0  0  0
   13.3278  -22.2812   25.6138 H   0  0  0  0  0  0  0  0  0  0  0  0
   13.9428  -25.9430   27.8175 H   0  0  0  0  0  0  0  0  0  0  0  0
   11.7475  -25.6797   28.8692 H   0  0  0  0  0  0  0  0  0  0  0  0
   10.3623  -20.9619   22.8016 H   0  0  0  0  0  0  0  0  0  0  0  0
   12.3910  -19.5707   22.7109 H   0  0  0  0  0  0  0  0  0  0  0  0
   12.7835  -17.8146   24.3887 H   0  0  0  0  0  0  0  0  0  0  0  0
    9.0626  -18.8391   26.3167 H   0  0  0  0  0  0  0  0  0  0  0  0
    4.7551  -19.7860   25.0734 H   0  0  0  0  0  0  0  0  0  0  0  0
    1.2809  -21.7724   23.7307 H   0  0  0  0  0  0  0  0  0  0  0  0
    2.4201  -22.4799   21.6553 H   0  0  0  0  0  0  0  0  0  0  0  0
    8.4143  -21.7186   23.9401 H   0  0  0  0  0  0  0  0  0  0  0  0
    3.3360  -23.1809   20.2322 H   0  0  0  0  0  0  0  0  0  0  0  0
    4.4019  -23.7690   18.1027 H   0  0  0  0  0  0  0  0  0  0  0  0
    7.7387  -21.2104   19.0717 H   0  0  0  0  0  0  0  0  0  0  0  0
    6.6715  -20.6250   21.1967 H   0  0  0  0  0  0  0  0  0  0  0  0
    6.9250  -22.1120   28.1166 H   0  0  0  0  0  0  0  0  0  0  0  0
    7.0450  -19.0761   24.5578 H   0  0  0  0  0  0  0  0  0  0  0  0
   10.0233  -22.3816   26.1198 H   0  0  0  0  0  0  0  0  0  0  0  0
  1  2  2  0
  2  3  1  0
  3  4  1  0
  4  5  2  0
  5  6  1  0
  6  7  2  0
  7  8  1  0
  8  9  2  0
  4  9  1  0
  7 11  1  0
 12 13  2  0
 13 14  1  0
 14 15  2  0
 15 16  1  0
 16 17  2  0
 12 17  1  0
 16 18  1  0
 10 19  1  0
 19 20  2  0
 21 22  1  0
 19 23  1  0
 22 23  2  0
 12 24  1  0
 23 25  1  0
 25 26  2  0
 26 27  1  0
 27 28  2  0
 28 29  1  0
 29 30  2  0
 25 30  1  0
 28 31  1  0
 24 32  1  0
  3 33  2  0
 33 34  1  0
 11 35  1  6
 11 36  1  0
 11 37  1  0
 18 38  1  1
 18 39  1  0
 18 40  1  0
 31 41  1  1
 31 42  1  0
 31 43  1  0
  1 44  1  0
 34 44  2  0
 24 45  1  0
 10 45  1  0
 20 46  1  0
 21 46  2  0
 33 47  1  0
 32 47  1  0
 10 48  2  0
 32 49  2  0
  1 50  1  0
  2 51  1  0
  5 52  1  0
  6 53  1  0
  8 54  1  0
  9 55  1  0
 13 56  1  0
 14 57  1  0
 15 58  1  0
 17 59  1  0
 20 60  1  0
 21 61  1  0
 22 62  1  0
 24 63  1  6
 26 64  1  0
 27 65  1  0
 29 66  1  0
 30 67  1  0
 34 68  1  0
 45 69  1  0
 47 70  1  0
M  END
