7ZYS_KNR_B_201
     RDKit          3D

 44 45  0  0  0  0  0  0  0  0999 V2000
    3.0952  -17.0108    8.1367 N   0  0  0  0  0  0  0  0  0  0  0  0
    2.1177   -9.4830    8.9117 C   0  0  0  0  0  0  0  0  0  0  0  0
    1.0143   -9.3842    7.8540 C   0  0  2  0  0  0  0  0  0  0  0  0
    5.3059  -17.7346    7.7352 N   0  0  0  0  0  0  0  0  0  0  0  0
   -0.2606   -8.7980    8.4671 C   0  0  0  0  0  0  0  0  0  0  0  0
    1.6156  -16.1841   13.5813 O   0  0  0  0  0  0  0  0  0  0  0  0
    4.1235  -14.4594    8.9450 C   0  0  1  0  0  0  0  0  0  0  0  0
    5.2036  -10.7065    9.0838 C   0  0  0  0  0  0  0  0  0  0  0  0
    4.5277   -9.3773    9.3493 C   0  0  0  0  0  0  0  0  0  0  0  0
    3.3538   -9.1944    8.5031 N   0  0  0  0  0  0  0  0  0  0  0  0
    4.2954  -11.9116    9.2649 C   0  0  0  0  0  0  0  0  0  0  0  0
    1.8571   -9.8497   10.0579 O   0  0  0  0  0  0  0  0  0  0  0  0
    5.0037  -13.2083    8.9395 C   0  0  0  0  0  0  0  0  0  0  0  0
    1.6913  -10.3802    5.2738 O   0  0  0  0  0  0  0  0  0  0  0  0
    4.4648  -16.8351    8.1058 C   0  0  0  0  0  0  0  0  0  0  0  0
    0.7449  -10.7067    7.3066 N   0  0  0  0  0  0  0  0  0  0  0  0
    4.9345  -15.5850    8.5070 N   0  0  0  0  0  0  0  0  0  0  0  0
    3.5083  -14.6545   10.3371 C   0  0  0  0  0  0  0  0  0  0  0  0
    2.4264  -14.1384   10.6307 O   0  0  0  0  0  0  0  0  0  0  0  0
   -1.4728   -8.8950    7.5484 C   0  0  0  0  0  0  0  0  0  0  0  0
   -2.5703   -7.8858    7.9342 C   0  0  0  0  0  0  0  0  0  0  0  0
   -3.7734   -7.9278    7.0196 C   0  0  0  0  0  0  0  0  0  0  0  0
    1.0368  -11.0741    6.0515 C   0  0  0  0  0  0  0  0  0  0  0  0
    0.5042  -12.4334    5.5978 C   0  0  2  0  0  0  0  0  0  0  0  0
   -0.3762  -12.2716    4.3598 C   0  0  0  0  0  0  0  0  0  0  0  0
   -1.1404  -13.5540    4.0383 C   0  0  0  0  0  0  0  0  0  0  0  0
   -2.3842  -13.3608    3.1846 C   0  0  0  0  0  0  0  0  0  0  0  0
   -2.9717  -11.9704    3.3017 C   0  0  0  0  0  0  0  0  0  0  0  0
    0.2163  -14.2356    7.2422 C   0  0  0  0  0  0  0  0  0  0  0  0
   -0.7999  -14.9001    8.1530 C   0  0  0  0  0  0  0  0  0  0  0  0
   -0.4529  -16.3135    8.5567 C   0  0  0  0  0  0  0  0  0  0  0  0
    0.1073  -16.5659    9.8037 C   0  0  0  0  0  0  0  0  0  0  0  0
    0.4310  -17.8604   10.2167 C   0  0  0  0  0  0  0  0  0  0  0  0
    1.0374  -18.0867   11.5717 C   0  0  0  0  0  0  0  0  0  0  0  0
    2.4120  -16.3618   12.6585 C   0  0  0  0  0  0  0  0  0  0  0  0
    3.6891  -15.5439   12.5619 C   0  0  0  0  0  0  0  0  0  0  0  0
    0.1893  -18.9047    9.3349 C   0  0  0  0  0  0  0  0  0  0  0  0
   -0.3616  -18.6760    8.0861 C   0  0  0  0  0  0  0  0  0  0  0  0
   -0.6834  -17.3820    7.7049 C   0  0  0  0  0  0  0  0  0  0  0  0
   -3.9428  -11.7058    2.2132 N   0  0  0  0  0  0  0  0  0  0  0  0
   -0.2321  -13.1351    6.6339 N   0  0  0  0  0  0  0  0  0  0  0  0
    2.2448  -17.2865   11.7165 N   0  0  0  0  0  0  0  0  0  0  0  0
    4.1936  -15.3867   11.2122 N   0  0  0  0  0  0  0  0  0  0  0  0
    1.3604  -14.6674    7.0940 O   0  0  0  0  0  0  0  0  0  0  0  0
  2  3  1  0
  3  5  1  1
  8  9  1  0
  2 10  1  0
  9 10  1  0
  8 11  1  0
  2 12  2  0
  7 13  1  0
 11 13  1  0
  1 15  2  0
  4 15  1  0
  3 16  1  0
  7 17  1  1
 15 17  1  0
  7 18  1  0
 18 19  2  0
  5 20  1  0
 20 21  1  0
 21 22  1  0
 16 23  1  0
 14 23  2  0
 23 24  1  0
 24 25  1  6
 25 26  1  0
 26 27  1  0
 27 28  1  0
 29 30  1  0
 30 31  1  0
 31 32  2  0
 32 33  1  0
 33 34  1  0
  6 35  2  0
 35 36  1  0
 33 37  2  0
 37 38  1  0
 31 39  1  0
 38 39  2  0
 28 40  1  0
 29 41  1  0
 24 41  1  0
 34 42  1  0
 35 42  1  0
 36 43  1  0
 18 43  1  0
 29 44  2  0
M  END
