
     RDKit          3D

 36 39  0  0  0  0  0  0  0  0999 V2000
   19.7198   27.7083  -49.4285 N   0  0  0  0  0  0  0  0  0  0  0  0
   20.0359   27.3596  -50.6954 C   0  0  0  0  0  0  0  0  0  0  0  0
   19.6554   26.2647  -51.3878 N   0  0  0  0  0  0  0  0  0  0  0  0
   18.8659   25.4748  -50.6381 C   0  0  0  0  0  0  0  0  0  0  0  0
   18.4679   25.6962  -49.3282 C   0  0  0  0  0  0  0  0  0  0  0  0
   18.9392   26.8685  -48.7098 C   0  0  0  0  0  0  0  0  0  0  0  0
   18.6217   27.2205  -47.4011 N   0  0  0  0  0  0  0  0  0  0  0  0
   17.6387   24.6848  -48.8866 N   0  0  0  0  0  0  0  0  0  0  0  0
   17.5417   23.8622  -49.9119 C   0  0  0  0  0  0  0  0  0  0  0  0
   18.2688   24.2941  -50.9909 N   0  0  0  0  0  0  0  0  0  0  0  0
   18.3618   23.6008  -52.2574 C   0  0  1  0  0  0  0  0  0  0  0  0
   18.6189   22.0960  -52.1493 C   0  0  2  0  0  0  0  0  0  0  0  0
   20.0069   21.7719  -52.0747 O   0  0  0  0  0  0  0  0  0  0  0  0
   18.0060   21.6057  -53.4520 C   0  0  2  0  0  0  0  0  0  0  0  0
   18.9722   21.8432  -54.4957 O   0  0  0  0  0  0  0  0  0  0  0  0
   17.1273   23.7803  -52.9878 O   0  0  0  0  0  0  0  0  0  0  0  0
   16.7919   22.5229  -53.6165 C   0  0  2  0  0  0  0  0  0  0  0  0
   15.5270   21.9563  -52.9682 C   0  0  0  0  0  0  0  0  0  0  0  0
   15.8153   21.5409  -51.6446 O   0  0  0  0  0  0  0  0  0  0  0  0
   15.7520   19.9757  -51.2965 P   0  0  1  0  0  5  0  0  0  0  0  0
   16.9023   19.1637  -51.7915 O   0  0  0  0  0  0  0  0  0  0  0  0
   15.7106   19.9777  -49.6913 O   0  0  0  0  0  0  0  0  0  0  0  0
   14.3083   19.4563  -51.6940 O   0  0  0  0  0  0  0  0  0  0  0  0
   12.9864   20.1629  -51.1680 P   0  0  1  0  0  5  0  0  0  0  0  0
   13.1718   21.0843  -50.0077 O   0  0  0  0  0  0  0  0  0  0  0  0
   12.3972   20.9166  -52.4534 O   0  0  0  0  0  0  0  0  0  0  0  0
   11.9330   18.9786  -50.9188 O   0  0  0  0  0  0  0  0  0  0  0  0
   11.3348   18.3489  -52.0465 C   0  0  0  0  0  0  0  0  0  0  0  0
   11.6065   15.9747  -51.5548 O   0  0  0  0  0  0  0  0  0  0  0  0
   11.0458   13.7838  -50.9283 O   0  0  0  0  0  0  0  0  0  0  0  0
   11.2396   15.1093  -50.4654 C   0  0  2  0  0  0  0  0  0  0  0  0
    8.7967   15.0955  -50.4830 O   0  0  0  0  0  0  0  0  0  0  0  0
    9.9556   15.6694  -49.8400 C   0  0  2  0  0  0  0  0  0  0  0  0
    8.7830   17.7597  -50.1406 O   0  0  0  0  0  0  0  0  0  0  0  0
   10.0650   17.1426  -50.1942 C   0  0  2  0  0  0  0  0  0  0  0  0
   10.6496   17.0553  -51.6043 C   0  0  1  0  0  0  0  0  0  0  0  0
  1  2  4  0
  2  3  4  0
  3  4  4  0
  4  5  4  0
  1  6  4  0
  5  6  4  0
  6  7  1  0
  5  8  4  0
  8  9  4  0
  4 10  4  0
  9 10  4  0
 11 10  1  1
 11 12  1  0
 12 13  1  6
 12 14  1  0
 14 15  1  6
 11 16  1  0
 14 17  1  0
 16 17  1  0
 17 18  1  1
 18 19  1  0
 19 20  1  0
 20 21  2  0
 20 22  1  1
 20 23  1  0
 23 24  1  0
 24 25  2  0
 24 26  1  6
 24 27  1  0
 27 28  1  0
 29 31  1  0
 31 30  1  6
 31 33  1  0
 33 32  1  6
 33 35  1  0
 35 34  1  6
 36 28  1  1
 29 36  1  0
 35 36  1  0
M  END
