1R58_AO5_A_501
     RDKit          3D

 23 23  0  0  0  0  0  0  0  0999 V2000
    7.0000   18.6121    0.7463 C   0  0  2  0  0  0  0  0  0  0  0  0
    7.4050   19.5932    1.8334 C   0  0  0  0  0  0  0  0  0  0  0  0
    7.9540   17.4556    0.6415 C   0  0  0  0  0  0  0  0  0  0  0  0
    7.0101   19.5124   -0.8278 S   0  0  0  0  0  0  0  0  0  0  0  0
    6.2816   21.1350   -0.6240 C   0  0  0  0  0  0  0  0  0  0  0  0
    6.2010   21.9086   -1.8949 C   0  0  0  0  0  0  0  0  0  0  0  0
    7.4930   22.5647   -2.2306 C   0  0  1  0  0  0  0  0  0  0  0  0
    7.4616   23.2557   -3.4759 N   0  0  0  0  0  0  0  0  0  0  0  0
    7.8341   23.4859   -1.0451 C   0  0  2  0  0  0  0  0  0  0  0  0
    6.8336   24.4882   -1.0320 O   0  0  0  0  0  0  0  0  0  0  0  0
    9.1345   24.1165   -1.3296 C   0  0  0  0  0  0  0  0  0  0  0  0
    9.5771   24.0607   -2.5049 O   0  0  0  0  0  0  0  0  0  0  0  0
    9.9309   24.7890   -0.3691 N   0  0  0  0  0  0  0  0  0  0  0  0
   11.1207   25.4560   -0.6794 N   0  0  0  0  0  0  0  0  0  0  0  0
   11.1285   26.8181   -1.1092 C   0  0  0  0  0  0  0  0  0  0  0  0
    9.9962   27.3987   -1.0932 O   0  0  0  0  0  0  0  0  0  0  0  0
   12.3374   27.5016   -1.5360 C   0  0  0  0  0  0  0  0  0  0  0  0
   12.4002   28.8506   -1.8086 C   0  0  0  0  0  0  0  0  0  0  0  0
   13.5527   29.4734   -2.2102 C   0  0  0  0  0  0  0  0  0  0  0  0
   14.7109   28.7269   -2.3521 C   0  0  0  0  0  0  0  0  0  0  0  0
   14.6543   27.3881   -2.0829 C   0  0  0  0  0  0  0  0  0  0  0  0
   13.4837   26.7655   -1.6770 C   0  0  0  0  0  0  0  0  0  0  0  0
   16.1307   26.4483   -2.2661 Cl  0  0  0  0  0  0  0  0  0  0  0  0
  1  2  1  1
  1  3  1  0
  1  4  1  0
  4  5  1  0
  5  6  1  0
  6  7  1  0
  7  8  1  6
  7  9  1  0
  9 10  1  6
  9 11  1  0
 11 12  2  0
 11 13  1  0
 13 14  1  0
 14 15  1  0
 15 16  2  0
 15 17  1  0
 17 18  2  0
 18 19  1  0
 19 20  2  0
 20 21  1  0
 17 22  1  0
 21 22  2  0
 21 23  1  0
M  END
$$$$
