1R58_AO5_A_501
     RDKit          3D

 23 23  0  0  0  0  0  0  0  0999 V2000
   15.2514   30.0413   23.7375 C   0  0  2  0  0  0  0  0  0  0  0  0
   14.6985   31.2808   24.4204 C   0  0  0  0  0  0  0  0  0  0  0  0
   16.5975   30.2882   23.1165 C   0  0  0  0  0  0  0  0  0  0  0  0
   14.0871   29.5799   22.4259 S   0  0  0  0  0  0  0  0  0  0  0  0
   13.8586   30.9415   21.2862 C   0  0  0  0  0  0  0  0  0  0  0  0
   12.8907   30.6399   20.1943 C   0  0  0  0  0  0  0  0  0  0  0  0
   12.5410   31.8538   19.4088 C   0  0  1  0  0  0  0  0  0  0  0  0
   13.6744   32.6506   19.0778 N   0  0  0  0  0  0  0  0  0  0  0  0
   11.7733   31.3627   18.1679 C   0  0  2  0  0  0  0  0  0  0  0  0
   11.8341   32.4217   17.2296 O   0  0  0  0  0  0  0  0  0  0  0  0
   10.3693   31.1586   18.5636 C   0  0  0  0  0  0  0  0  0  0  0  0
    9.7490   32.1264   19.0725 O   0  0  0  0  0  0  0  0  0  0  0  0
    9.6580   29.9421   18.4108 N   0  0  0  0  0  0  0  0  0  0  0  0
    8.2981   29.7976   18.7052 N   0  0  0  0  0  0  0  0  0  0  0  0
    7.2888   30.4526   17.9355 C   0  0  0  0  0  0  0  0  0  0  0  0
    7.6867   30.9591   16.8379 O   0  0  0  0  0  0  0  0  0  0  0  0
    5.9039   30.5399   18.3656 C   0  0  0  0  0  0  0  0  0  0  0  0
    4.8800   30.9990   17.5663 C   0  0  0  0  0  0  0  0  0  0  0  0
    3.5805   31.0724   17.9944 C   0  0  0  0  0  0  0  0  0  0  0  0
    3.2692   30.6712   19.2833 C   0  0  0  0  0  0  0  0  0  0  0  0
    4.2811   30.2150   20.0806 C   0  0  0  0  0  0  0  0  0  0  0  0
    5.5938   30.1439   19.6395 C   0  0  0  0  0  0  0  0  0  0  0  0
    3.8757   29.7077   21.7161 Cl  0  0  0  0  0  0  0  0  0  0  0  0
  1  2  1  6
  1  3  1  0
  1  4  1  0
  4  5  1  0
  5  6  1  0
  6  7  1  0
  7  8  1  6
  7  9  1  0
  9 10  1  6
  9 11  1  0
 11 12  2  0
 11 13  1  0
 13 14  1  0
 14 15  1  0
 15 16  2  0
 15 17  1  0
 17 18  2  0
 18 19  1  0
 19 20  2  0
 20 21  1  0
 17 22  1  0
 21 22  2  0
 21 23  1  0
M  END
$$$$
