1R58_AO5_A_501
     RDKit          3D

 23 23  0  0  0  0  0  0  0  0999 V2000
   18.0438   31.0205   16.1308 C   0  0  2  0  0  0  0  0  0  0  0  0
   16.8454   30.1059   15.9419 C   0  0  0  0  0  0  0  0  0  0  0  0
   19.2936   30.2564   16.4668 C   0  0  0  0  0  0  0  0  0  0  0  0
   17.6625   32.1366   17.5083 S   0  0  0  0  0  0  0  0  0  0  0  0
   16.0169   32.8171   17.3236 C   0  0  0  0  0  0  0  0  0  0  0  0
   15.6793   33.8324   18.3605 C   0  0  0  0  0  0  0  0  0  0  0  0
   14.3631   34.4756   18.1026 C   0  0  1  0  0  0  0  0  0  0  0  0
   13.3138   33.5356   17.8915 N   0  0  0  0  0  0  0  0  0  0  0  0
   14.0952   35.4116   19.2952 C   0  0  2  0  0  0  0  0  0  0  0  0
   13.6491   34.5785   20.3500 O   0  0  0  0  0  0  0  0  0  0  0  0
   13.0009   36.3202   18.9125 C   0  0  0  0  0  0  0  0  0  0  0  0
   11.9974   35.8310   18.3346 O   0  0  0  0  0  0  0  0  0  0  0  0
   12.9938   37.7176   19.1503 N   0  0  0  0  0  0  0  0  0  0  0  0
   11.9231   38.5544   18.8184 N   0  0  0  0  0  0  0  0  0  0  0  0
   10.7389   38.6116   19.6149 C   0  0  0  0  0  0  0  0  0  0  0  0
   10.8319   38.0740   20.7647 O   0  0  0  0  0  0  0  0  0  0  0  0
    9.5106   39.2364   19.1551 C   0  0  0  0  0  0  0  0  0  0  0  0
    8.4298   39.4945   19.9695 C   0  0  0  0  0  0  0  0  0  0  0  0
    7.2811   40.0852   19.5127 C   0  0  0  0  0  0  0  0  0  0  0  0
    7.1892   40.4432   18.1776 C   0  0  0  0  0  0  0  0  0  0  0  0
    8.2585   40.1895   17.3652 C   0  0  0  0  0  0  0  0  0  0  0  0
    9.4176   39.5912   17.8355 C   0  0  0  0  0  0  0  0  0  0  0  0
    8.1322   40.6478   15.6709 Cl  0  0  0  0  0  0  0  0  0  0  0  0
  1  2  1  1
  1  3  1  0
  1  4  1  0
  4  5  1  0
  5  6  1  0
  6  7  1  0
  7  8  1  1
  7  9  1  0
  9 10  1  1
  9 11  1  0
 11 12  2  0
 11 13  1  0
 13 14  1  0
 14 15  1  0
 15 16  2  0
 15 17  1  0
 17 18  2  0
 18 19  1  0
 19 20  2  0
 20 21  1  0
 17 22  1  0
 21 22  2  0
 21 23  1  0
M  END
$$$$
