1R58_AO5_A_501
     RDKit          3D

 23 23  0  0  0  0  0  0  0  0999 V2000
    0.8551   -3.7152    5.8754 C   0  0  2  0  0  0  0  0  0  0  0  0
    0.1882   -2.4247    6.3207 C   0  0  0  0  0  0  0  0  0  0  0  0
    0.3333   -4.9106    6.6219 C   0  0  0  0  0  0  0  0  0  0  0  0
    2.6294   -3.5534    6.2137 S   0  0  0  0  0  0  0  0  0  0  0  0
    2.9025   -3.1493    7.9362 C   0  0  0  0  0  0  0  0  0  0  0  0
    4.3442   -3.1075    8.3102 C   0  0  0  0  0  0  0  0  0  0  0  0
    4.5391   -2.7328    9.7365 C   0  0  1  0  0  0  0  0  0  0  0  0
    3.9068   -3.6327   10.6418 N   0  0  0  0  0  0  0  0  0  0  0  0
    6.0597   -2.6346    9.9566 C   0  0  2  0  0  0  0  0  0  0  0  0
    6.5289   -3.9691   10.0254 O   0  0  0  0  0  0  0  0  0  0  0  0
    6.2809   -1.9856   11.2602 C   0  0  0  0  0  0  0  0  0  0  0  0
    5.8670   -2.5710   12.2929 O   0  0  0  0  0  0  0  0  0  0  0  0
    6.9327   -0.7397   11.4395 N   0  0  0  0  0  0  0  0  0  0  0  0
    7.2788   -0.2195   12.6911 N   0  0  0  0  0  0  0  0  0  0  0  0
    8.5250    0.4427   12.9113 C   0  0  0  0  0  0  0  0  0  0  0  0
    9.2625    0.5676   11.8816 O   0  0  0  0  0  0  0  0  0  0  0  0
    8.9315    0.9419   14.2136 C   0  0  0  0  0  0  0  0  0  0  0  0
   10.0617    1.7006   14.4257 C   0  0  0  0  0  0  0  0  0  0  0  0
   10.4250    2.1604   15.6642 C   0  0  0  0  0  0  0  0  0  0  0  0
    9.6310    1.8570   16.7581 C   0  0  0  0  0  0  0  0  0  0  0  0
    8.5085    1.1047   16.5534 C   0  0  0  0  0  0  0  0  0  0  0  0
    8.1480    0.6432   15.2965 C   0  0  0  0  0  0  0  0  0  0  0  0
    7.5065    0.7245   17.9491 Cl  0  0  0  0  0  0  0  0  0  0  0  0
  1  2  1  1
  1  3  1  0
  1  4  1  0
  4  5  1  0
  5  6  1  0
  6  7  1  0
  7  8  1  1
  7  9  1  0
  9 10  1  1
  9 11  1  0
 11 12  2  0
 11 13  1  0
 13 14  1  0
 14 15  1  0
 15 16  2  0
 15 17  1  0
 17 18  2  0
 18 19  1  0
 19 20  2  0
 20 21  1  0
 17 22  1  0
 21 22  2  0
 21 23  1  0
M  END
$$$$
