1R58_AO5_A_501
     RDKit          3D

 23 23  0  0  0  0  0  0  0  0999 V2000
   20.9270   32.3660   14.9555 C   0  0  2  0  0  0  0  0  0  0  0  0
   21.2300   31.0117   15.5739 C   0  0  0  0  0  0  0  0  0  0  0  0
   22.0067   33.3728   15.2370 C   0  0  0  0  0  0  0  0  0  0  0  0
   19.3782   32.9617   15.6868 S   0  0  0  0  0  0  0  0  0  0  0  0
   18.6833   31.7211   16.7745 C   0  0  0  0  0  0  0  0  0  0  0  0
   17.4125   32.1510   17.4228 C   0  0  0  0  0  0  0  0  0  0  0  0
   16.2593   32.0863   16.4855 C   0  0  1  0  0  0  0  0  0  0  0  0
   15.8948   30.7533   16.1397 N   0  0  0  0  0  0  0  0  0  0  0  0
   15.1114   32.8649   17.1537 C   0  0  2  0  0  0  0  0  0  0  0  0
   14.8090   32.1632   18.3462 O   0  0  0  0  0  0  0  0  0  0  0  0
   13.9458   32.7996   16.2556 C   0  0  0  0  0  0  0  0  0  0  0  0
   13.5457   31.6676   15.8831 O   0  0  0  0  0  0  0  0  0  0  0  0
   13.2339   33.9279   15.7766 N   0  0  0  0  0  0  0  0  0  0  0  0
   12.0885   33.8395   14.9783 N   0  0  0  0  0  0  0  0  0  0  0  0
   10.7831   33.7273   15.5469 C   0  0  0  0  0  0  0  0  0  0  0  0
   10.7274   33.8696   16.8104 O   0  0  0  0  0  0  0  0  0  0  0  0
    9.5968   33.4695   14.7489 C   0  0  0  0  0  0  0  0  0  0  0  0
    8.3299   33.3456   15.2759 C   0  0  0  0  0  0  0  0  0  0  0  0
    7.2253   33.1021   14.5027 C   0  0  0  0  0  0  0  0  0  0  0  0
    7.3745   32.9728   13.1316 C   0  0  0  0  0  0  0  0  0  0  0  0
    8.6291   33.0948   12.6034 C   0  0  0  0  0  0  0  0  0  0  0  0
    9.7419   33.3413   13.3931 C   0  0  0  0  0  0  0  0  0  0  0  0
    8.8085   32.9290   10.8607 Cl  0  0  0  0  0  0  0  0  0  0  0  0
  1  2  1  1
  1  3  1  0
  1  4  1  0
  4  5  1  0
  5  6  1  0
  6  7  1  0
  7  8  1  1
  7  9  1  0
  9 10  1  1
  9 11  1  0
 11 12  2  0
 11 13  1  0
 13 14  1  0
 14 15  1  0
 15 16  2  0
 15 17  1  0
 17 18  2  0
 18 19  1  0
 19 20  2  0
 20 21  1  0
 17 22  1  0
 21 22  2  0
 21 23  1  0
M  END
$$$$
