1R58_AO5_A_501
     RDKit          3D

 23 23  0  0  0  0  0  0  0  0999 V2000
   17.8938   34.5206   24.8197 C   0  0  2  0  0  0  0  0  0  0  0  0
   17.9015   35.1072   26.2212 C   0  0  0  0  0  0  0  0  0  0  0  0
   19.2029   34.7269   24.1109 C   0  0  0  0  0  0  0  0  0  0  0  0
   16.5917   35.3682   23.8843 S   0  0  0  0  0  0  0  0  0  0  0  0
   15.0242   35.2403   24.7395 C   0  0  0  0  0  0  0  0  0  0  0  0
   13.8935   35.8607   23.9934 C   0  0  0  0  0  0  0  0  0  0  0  0
   14.2405   37.2126   23.4792 C   0  0  1  0  0  0  0  0  0  0  0  0
   15.4895   37.2463   22.7950 N   0  0  0  0  0  0  0  0  0  0  0  0
   13.0623   37.6567   22.5933 C   0  0  2  0  0  0  0  0  0  0  0  0
   13.1464   36.8753   21.4152 O   0  0  0  0  0  0  0  0  0  0  0  0
   13.2767   39.0709   22.2415 C   0  0  0  0  0  0  0  0  0  0  0  0
   14.1491   39.3424   21.3781 O   0  0  0  0  0  0  0  0  0  0  0  0
   12.5655   40.1586   22.8077 N   0  0  0  0  0  0  0  0  0  0  0  0
   12.7586   41.4913   22.4293 N   0  0  0  0  0  0  0  0  0  0  0  0
   11.9206   42.1273   21.4633 C   0  0  0  0  0  0  0  0  0  0  0  0
   10.9114   41.4481   21.0894 O   0  0  0  0  0  0  0  0  0  0  0  0
   12.1917   43.4546   20.9384 C   0  0  0  0  0  0  0  0  0  0  0  0
   11.3576   44.1199   20.0668 C   0  0  0  0  0  0  0  0  0  0  0  0
   11.6347   45.3721   19.5848 C   0  0  0  0  0  0  0  0  0  0  0  0
   12.7996   46.0076   19.9827 C   0  0  0  0  0  0  0  0  0  0  0  0
   13.6308   45.3522   20.8472 C   0  0  0  0  0  0  0  0  0  0  0  0
   13.3428   44.0847   21.3303 C   0  0  0  0  0  0  0  0  0  0  0  0
   15.1080   46.1676   21.3467 Cl  0  0  0  0  0  0  0  0  0  0  0  0
  1  2  1  1
  1  3  1  0
  1  4  1  0
  4  5  1  0
  5  6  1  0
  6  7  1  0
  7  8  1  6
  7  9  1  0
  9 10  1  6
  9 11  1  0
 11 12  2  0
 11 13  1  0
 13 14  1  0
 14 15  1  0
 15 16  2  0
 15 17  1  0
 17 18  2  0
 18 19  1  0
 19 20  2  0
 20 21  1  0
 17 22  1  0
 21 22  2  0
 21 23  1  0
M  END
$$$$
