1R58_AO5_A_501
     RDKit          3D

 23 23  0  0  0  0  0  0  0  0999 V2000
   18.5729   43.4236   24.6721 C   0  0  2  0  0  0  0  0  0  0  0  0
   19.5532   44.0685   23.7071 C   0  0  0  0  0  0  0  0  0  0  0  0
   19.2246   42.3714   25.5245 C   0  0  0  0  0  0  0  0  0  0  0  0
   17.2728   42.6389   23.6807 S   0  0  0  0  0  0  0  0  0  0  0  0
   17.1150   40.9091   24.1144 C   0  0  0  0  0  0  0  0  0  0  0  0
   16.0266   40.2126   23.3724 C   0  0  0  0  0  0  0  0  0  0  0  0
   16.0072   38.7520   23.6535 C   0  0  1  0  0  0  0  0  0  0  0  0
   15.6422   38.4464   24.9961 N   0  0  0  0  0  0  0  0  0  0  0  0
   15.0572   38.1225   22.6184 C   0  0  2  0  0  0  0  0  0  0  0  0
   13.7594   38.5793   22.9543 O   0  0  0  0  0  0  0  0  0  0  0  0
   15.1074   36.6613   22.7972 C   0  0  0  0  0  0  0  0  0  0  0  0
   16.0124   36.1830   23.5269 O   0  0  0  0  0  0  0  0  0  0  0  0
   14.2026   35.7456   22.2038 N   0  0  0  0  0  0  0  0  0  0  0  0
   14.2863   34.3587   22.3660 N   0  0  0  0  0  0  0  0  0  0  0  0
   13.3370   33.4737   21.7696 C   0  0  0  0  0  0  0  0  0  0  0  0
   12.3590   34.0407   21.1851 O   0  0  0  0  0  0  0  0  0  0  0  0
   13.4690   32.0278   21.8206 C   0  0  0  0  0  0  0  0  0  0  0  0
   12.5276   31.1536   21.3229 C   0  0  0  0  0  0  0  0  0  0  0  0
   12.6742   29.7926   21.3825 C   0  0  0  0  0  0  0  0  0  0  0  0
   13.8123   29.2597   21.9654 C   0  0  0  0  0  0  0  0  0  0  0  0
   14.7495   30.1224   22.4608 C   0  0  0  0  0  0  0  0  0  0  0  0
   14.5934   31.4987   22.3964 C   0  0  0  0  0  0  0  0  0  0  0  0
   16.1917   29.4359   23.1992 Cl  0  0  0  0  0  0  0  0  0  0  0  0
  1  2  1  6
  1  3  1  0
  1  4  1  0
  4  5  1  0
  5  6  1  0
  6  7  1  0
  7  8  1  1
  7  9  1  0
  9 10  1  1
  9 11  1  0
 11 12  2  0
 11 13  1  0
 13 14  1  0
 14 15  1  0
 15 16  2  0
 15 17  1  0
 17 18  2  0
 18 19  1  0
 19 20  2  0
 20 21  1  0
 17 22  1  0
 21 22  2  0
 21 23  1  0
M  END
$$$$
