1R58_AO5_A_501
     RDKit          3D

 23 23  0  0  0  0  0  0  0  0999 V2000
   18.1389   28.7593   21.5568 C   0  0  2  0  0  0  0  0  0  0  0  0
   18.9954   28.3838   22.7542 C   0  0  0  0  0  0  0  0  0  0  0  0
   18.5246   30.0918   20.9787 C   0  0  0  0  0  0  0  0  0  0  0  0
   16.4203   28.8541   22.1279 S   0  0  0  0  0  0  0  0  0  0  0  0
   15.6003   30.2734   21.4078 C   0  0  0  0  0  0  0  0  0  0  0  0
   14.1740   30.4015   21.8195 C   0  0  0  0  0  0  0  0  0  0  0  0
   14.0312   31.1073   23.1210 C   0  0  1  0  0  0  0  0  0  0  0  0
   14.5604   32.4296   23.1004 N   0  0  0  0  0  0  0  0  0  0  0  0
   12.5332   31.0691   23.4744 C   0  0  2  0  0  0  0  0  0  0  0  0
   11.9217   32.0706   22.6815 O   0  0  0  0  0  0  0  0  0  0  0  0
   12.3999   31.4398   24.8937 C   0  0  0  0  0  0  0  0  0  0  0  0
   13.4151   31.3479   25.6294 O   0  0  0  0  0  0  0  0  0  0  0  0
   11.2021   31.8980   25.4975 N   0  0  0  0  0  0  0  0  0  0  0  0
   11.0715   32.1473   26.8677 N   0  0  0  0  0  0  0  0  0  0  0  0
    9.9103   31.7474   27.5971 C   0  0  0  0  0  0  0  0  0  0  0  0
    8.9718   31.2526   26.8942 O   0  0  0  0  0  0  0  0  0  0  0  0
    9.7983   31.8909   29.0384 C   0  0  0  0  0  0  0  0  0  0  0  0
   10.7711   32.4603   29.8305 C   0  0  0  0  0  0  0  0  0  0  0  0
   10.6428   32.5847   31.1889 C   0  0  0  0  0  0  0  0  0  0  0  0
    9.4913   32.1226   31.8048 C   0  0  0  0  0  0  0  0  0  0  0  0
    8.5229   31.5568   31.0238 C   0  0  0  0  0  0  0  0  0  0  0  0
    8.6606   31.4347   29.6494 C   0  0  0  0  0  0  0  0  0  0  0  0
    7.0638   30.9727   31.8153 Cl  0  0  0  0  0  0  0  0  0  0  0  0
  1  2  1  1
  1  3  1  0
  1  4  1  0
  4  5  1  0
  5  6  1  0
  6  7  1  0
  7  8  1  6
  7  9  1  0
  9 10  1  6
  9 11  1  0
 11 12  2  0
 11 13  1  0
 13 14  1  0
 14 15  1  0
 15 16  2  0
 15 17  1  0
 17 18  2  0
 18 19  1  0
 19 20  2  0
 20 21  1  0
 17 22  1  0
 21 22  2  0
 21 23  1  0
M  END
$$$$
