1R58_AO5_A_501
     RDKit          3D

 23 23  0  0  0  0  0  0  0  0999 V2000
   19.1939   29.0741   20.3993 C   0  0  2  0  0  0  0  0  0  0  0  0
   18.7421   27.6714   20.0296 C   0  0  0  0  0  0  0  0  0  0  0  0
   20.2949   29.0647   21.4221 C   0  0  0  0  0  0  0  0  0  0  0  0
   17.7620   29.9376   21.1014 S   0  0  0  0  0  0  0  0  0  0  0  0
   16.3535   29.8057   20.0043 C   0  0  0  0  0  0  0  0  0  0  0  0
   15.1398   30.5013   20.5174 C   0  0  0  0  0  0  0  0  0  0  0  0
   14.5059   29.7601   21.6405 C   0  0  1  0  0  0  0  0  0  0  0  0
   15.4512   29.2393   22.5701 N   0  0  0  0  0  0  0  0  0  0  0  0
   13.5019   30.7299   22.2899 C   0  0  2  0  0  0  0  0  0  0  0  0
   14.2809   31.7322   22.9178 O   0  0  0  0  0  0  0  0  0  0  0  0
   12.7654   29.9833   23.3242 C   0  0  0  0  0  0  0  0  0  0  0  0
   13.3859   29.6355   24.3607 O   0  0  0  0  0  0  0  0  0  0  0  0
   11.3965   29.6257   23.2384 N   0  0  0  0  0  0  0  0  0  0  0  0
   10.6757   29.0605   24.2957 N   0  0  0  0  0  0  0  0  0  0  0  0
   10.2500   29.8382   25.4155 C   0  0  0  0  0  0  0  0  0  0  0  0
   10.4282   31.0934   25.3037 O   0  0  0  0  0  0  0  0  0  0  0  0
    9.6547   29.2486   26.6024 C   0  0  0  0  0  0  0  0  0  0  0  0
    9.1153   29.9830   27.6356 C   0  0  0  0  0  0  0  0  0  0  0  0
    8.5590   29.4042   28.7459 C   0  0  0  0  0  0  0  0  0  0  0  0
    8.5313   28.0228   28.8466 C   0  0  0  0  0  0  0  0  0  0  0  0
    9.0651   27.2892   27.8244 C   0  0  0  0  0  0  0  0  0  0  0  0
    9.6262   27.8831   26.7040 C   0  0  0  0  0  0  0  0  0  0  0  0
    9.0252   25.5353   27.9615 Cl  0  0  0  0  0  0  0  0  0  0  0  0
  1  2  1  1
  1  3  1  0
  1  4  1  0
  4  5  1  0
  5  6  1  0
  6  7  1  0
  7  8  1  1
  7  9  1  0
  9 10  1  1
  9 11  1  0
 11 12  2  0
 11 13  1  0
 13 14  1  0
 14 15  1  0
 15 16  2  0
 15 17  1  0
 17 18  2  0
 18 19  1  0
 19 20  2  0
 20 21  1  0
 17 22  1  0
 21 22  2  0
 21 23  1  0
M  END
$$$$
