
     RDKit          3D

 54 56  0  0  0  0  0  0  0  0999 V2000
  -15.4958   -6.8366   26.2480 C   0  0  0  0  0  0  0  0  0  0  0  0
  -14.2809   -7.6752   26.6693 C   0  0  0  0  0  0  0  0  0  0  0  0
  -13.4233   -6.8875   27.6626 C   0  0  0  0  0  0  0  0  0  0  0  0
  -13.4644   -7.9191   25.5290 O   0  0  0  0  0  0  0  0  0  0  0  0
  -14.7887   -8.9675   27.3649 C   0  0  0  0  0  0  0  0  0  0  0  0
  -14.0680   -9.8960   27.7108 O   0  0  0  0  0  0  0  0  0  0  0  0
  -16.5289   -8.9954   27.7198 S   0  0  0  0  0  0  0  0  0  0  0  0
  -16.7863  -10.7745   27.4594 C   0  0  0  0  0  0  0  0  0  0  0  0
  -18.2689  -11.1668   27.4735 C   0  0  0  0  0  0  0  0  0  0  0  0
  -19.0258  -10.7749   28.6577 N   0  0  0  0  0  0  0  0  0  0  0  0
  -19.9758   -9.7780   28.6042 C   0  0  0  0  0  0  0  0  0  0  0  0
  -20.3548   -9.2601   27.5575 O   0  0  0  0  0  0  0  0  0  0  0  0
  -20.4839   -9.3301   29.9587 C   0  0  0  0  0  0  0  0  0  0  0  0
  -21.9975   -9.4801   30.0640 C   0  0  0  0  0  0  0  0  0  0  0  0
  -22.6320   -8.3054   30.6461 N   0  0  0  0  0  0  0  0  0  0  0  0
  -22.6615   -8.1244   32.0100 C   0  0  0  0  0  0  0  0  0  0  0  0
  -21.8735   -8.7027   32.7635 O   0  0  0  0  0  0  0  0  0  0  0  0
  -23.6401   -7.0606   32.5853 C   0  0  2  0  0  0  0  0  0  0  0  0
  -24.8364   -7.1312   31.7725 O   0  0  0  0  0  0  0  0  0  0  0  0
  -23.1927   -5.5700   32.6650 C   0  0  0  0  0  0  0  0  0  0  0  0
  -21.9759   -5.3008   31.7612 C   0  0  0  0  0  0  0  0  0  0  0  0
  -22.8508   -5.1591   34.1139 C   0  0  0  0  0  0  0  0  0  0  0  0
  -24.3753   -4.6770   32.1985 C   0  0  0  0  0  0  0  0  0  0  0  0
  -25.3533   -4.5343   33.2299 O   0  0  0  0  0  0  0  0  0  0  0  0
  -26.8878   -4.4451   32.7562 P   0  0  1  0  0  5  0  0  0  0  0  0
  -27.4266   -5.9231   33.0868 O   0  0  0  0  0  0  0  0  0  0  0  0
  -27.6935   -3.3511   33.3692 O   0  0  0  0  0  0  0  0  0  0  0  0
  -26.7900   -4.4523   31.1688 O   0  0  0  0  0  0  0  0  0  0  0  0
  -28.1188   -4.3113   30.3070 P   0  0  1  0  0  5  0  0  0  0  0  0
  -28.0113   -4.7276   28.8725 O   0  0  0  0  0  0  0  0  0  0  0  0
  -29.2318   -5.0689   31.1597 O   0  0  0  0  0  0  0  0  0  0  0  0
  -28.5506   -2.7840   30.5099 O   0  0  0  0  0  0  0  0  0  0  0  0
  -28.4757   -1.9303   29.3722 C   0  0  0  0  0  0  0  0  0  0  0  0
  -29.4681   -0.7863   29.5611 C   0  0  1  0  0  0  0  0  0  0  0  0
  -30.7090   -1.1366   28.8953 O   0  0  0  0  0  0  0  0  0  0  0  0
  -29.8055   -0.5370   31.0297 C   0  0  1  0  0  0  0  0  0  0  0  0
  -29.9846    0.8684   31.2109 O   0  0  0  0  0  0  0  0  0  0  0  0
  -28.6996    1.7490   31.5597 P   0  0  0  0  0  5  0  0  0  0  0  0
  -27.7207    1.2035   32.5344 O   0  0  0  0  0  0  0  0  0  0  0  0
  -28.0568    2.0414   30.1148 O   0  0  0  0  0  0  0  0  0  0  0  0
  -29.3029    3.1766   31.9298 O   0  0  0  0  0  0  0  0  0  0  0  0
  -31.1314   -1.2600   31.2258 C   0  0  1  0  0  0  0  0  0  0  0  0
  -31.8734   -0.7333   32.3252 O   0  0  0  0  0  0  0  0  0  0  0  0
  -31.7828   -1.0752   29.8541 C   0  0  2  0  0  0  0  0  0  0  0  0
  -32.7471   -2.1054   29.5346 N   0  0  0  0  0  0  0  0  0  0  0  0
  -32.7593   -3.3908   30.0175 C   0  0  0  0  0  0  0  0  0  0  0  0
  -33.7901   -4.0726   29.5679 N   0  0  0  0  0  0  0  0  0  0  0  0
  -34.4421   -3.2085   28.7085 C   0  0  0  0  0  0  0  0  0  0  0  0
  -33.8225   -1.9649   28.7014 C   0  0  0  0  0  0  0  0  0  0  0  0
  -34.1827   -0.8703   28.0145 N   0  0  0  0  0  0  0  0  0  0  0  0
  -35.2553   -1.1382   27.2375 C   0  0  0  0  0  0  0  0  0  0  0  0
  -35.9408   -2.3013   27.1165 N   0  0  0  0  0  0  0  0  0  0  0  0
  -35.5459   -3.3696   27.8575 C   0  0  0  0  0  0  0  0  0  0  0  0
  -36.2544   -4.5558   27.7487 N   0  0  0  0  0  0  0  0  0  0  0  0
  1  2  1  0
  2  3  1  0
  2  4  1  0
  2  5  1  0
  5  6  2  0
  5  7  1  0
  7  8  1  0
  8  9  1  0
  9 10  1  0
 10 11  1  0
 11 12  2  0
 11 13  1  0
 13 14  1  0
 14 15  1  0
 15 16  1  0
 16 17  2  0
 16 18  1  0
 18 19  1  6
 18 20  1  0
 20 21  1  0
 20 22  1  0
 20 23  1  0
 23 24  1  0
 25 24  1  0
 25 26  1  1
 25 27  2  0
 25 28  1  0
 29 28  1  0
 29 30  2  0
 29 31  1  0
 29 32  1  0
 32 33  1  0
 34 33  1  1
 34 35  1  0
 34 36  1  0
 36 37  1  6
 37 38  1  0
 38 39  2  0
 38 40  1  0
 38 41  1  0
 36 42  1  0
 42 43  1  1
 42 44  1  0
 35 44  1  0
 44 45  1  6
 45 46  4  0
 46 47  4  0
 47 48  4  0
 45 49  4  0
 48 49  4  0
 49 50  4  0
 50 51  4  0
 51 52  4  0
 48 53  4  0
 52 53  4  0
 53 54  1  0
M  END
