
     RDKit          3D

 12 12  0  0  0  0  0  0  0  0999 V2000
   56.9983   66.7671   62.0689 C   0  0  1  0  0  0  0  0  0  0  0  0
   56.3325   66.8274   60.6900 C   0  0  1  0  0  0  0  0  0  0  0  0
   57.3822   66.5219   59.6192 C   0  0  2  0  0  0  0  0  0  0  0  0
   58.5998   67.4409   59.7745 C   0  0  1  0  0  0  0  0  0  0  0  0
   59.1302   67.3775   61.2189 C   0  0  1  0  0  0  0  0  0  0  0  0
   60.2929   68.3604   61.4234 C   0  0  0  0  0  0  0  0  0  0  0  0
   57.5146   65.5285   62.2844 F   0  0  0  0  0  0  0  0  0  0  0  0
   55.2246   65.9298   60.5761 O   0  0  0  0  0  0  0  0  0  0  0  0
   56.8145   66.6853   58.3061 O   0  0  0  0  0  0  0  0  0  0  0  0
   59.6132   67.0765   58.8315 O   0  0  0  0  0  0  0  0  0  0  0  0
   58.0822   67.6958   62.1475 O   0  0  0  0  0  0  0  0  0  0  0  0
   59.9495   69.6927   61.0584 O   0  0  0  0  0  0  0  0  0  0  0  0
  1  2  1  0
  2  3  1  0
  3  4  1  0
  4  5  1  0
  5  6  1  6
  1  7  1  6
  2  8  1  1
  3  9  1  6
  4 10  1  6
  1 11  1  0
  5 11  1  0
  6 12  1  0
M  END
