1SQ5_PAU_A_6001
     RDKit          3D

 15 14  0  0  0  0  0  0  0  0999 V2000
   86.7321   60.6204   16.3447 O   0  0  0  0  0  0  0  0  0  0  0  0
   88.1042   62.0428   17.6957 C   0  0  2  0  0  0  0  0  0  0  0  0
   87.5123   61.8009   16.3285 C   0  0  0  0  0  0  0  0  0  0  0  0
   88.0244   63.5288   17.9720 C   0  0  0  0  0  0  0  0  0  0  0  0
   89.5623   61.5913   17.6136 C   0  0  0  0  0  0  0  0  0  0  0  0
   87.4942   61.2579   18.8035 C   0  0  1  0  0  0  0  0  0  0  0  0
   87.9097   59.9123   18.5663 O   0  0  0  0  0  0  0  0  0  0  0  0
   88.0102   61.5610   20.1593 C   0  0  0  0  0  0  0  0  0  0  0  0
   87.4605   62.5539   20.7496 O   0  0  0  0  0  0  0  0  0  0  0  0
   89.0442   60.8286   20.7996 N   0  0  0  0  0  0  0  0  0  0  0  0
   89.5870   61.2814   22.0585 C   0  0  0  0  0  0  0  0  0  0  0  0
   90.9424   61.9348   21.9362 C   0  0  0  0  0  0  0  0  0  0  0  0
   91.4768   62.2723   23.3038 C   0  0  0  0  0  0  0  0  0  0  0  0
   92.8110   62.6775   23.3574 O   0  0  0  0  0  0  0  0  0  0  0  0
   90.7711   62.1952   24.3295 O   0  0  0  0  0  0  0  0  0  0  0  0
  3  1  1  6
  2  3  1  0
  2  4  1  1
  5  2  1  6
  2  6  1  0
  6  7  1  6
  6  8  1  0
  8  9  2  0
  8 10  1  0
 11 10  1  6
 11 12  1  0
 12 13  1  6
 13 14  1  0
 13 15  2  0
M  END
$$$$
