1IA1_TQ3_B_196
     RDKit          3D

 31 33  0  0  0  0  0  0  0  0999 V2000
    8.1275   34.8053   18.5814 C   0  0  0  0  0  0  0  0  0  0  0  0
    8.4448   36.1463   18.9282 C   0  0  0  0  0  0  0  0  0  0  0  0
    7.4130   36.9653   19.4758 C   0  0  0  0  0  0  0  0  0  0  0  0
    6.2104   36.4958   19.7301 N   0  0  0  0  0  0  0  0  0  0  0  0
    5.8881   35.2091   19.4620 C   0  0  0  0  0  0  0  0  0  0  0  0
    6.7571   34.3585   18.8485 N   0  0  0  0  0  0  0  0  0  0  0  0
    7.4701   38.2492   19.8767 N   0  0  0  0  0  0  0  0  0  0  0  0
    9.0485   33.9267   18.0368 C   0  0  0  0  0  0  0  0  0  0  0  0
   10.3477   34.3773   17.8045 C   0  0  0  0  0  0  0  0  0  0  0  0
   10.7068   35.7107   18.1040 C   0  0  0  0  0  0  0  0  0  0  0  0
    9.8273   36.5403   18.6631 C   0  0  0  0  0  0  0  0  0  0  0  0
    4.6883   34.6770   19.7176 N   0  0  0  0  0  0  0  0  0  0  0  0
   10.3398   38.1824   19.1865 S   0  0  0  0  0  0  0  0  0  0  0  0
   12.0311   38.2648   18.6288 C   0  0  0  0  0  0  0  0  0  0  0  0
   12.8902   39.1499   19.2243 C   0  0  0  0  0  0  0  0  0  0  0  0
   14.2518   39.2110   18.8311 C   0  0  0  0  0  0  0  0  0  0  0  0
   14.6920   38.2557   17.8735 C   0  0  0  0  0  0  0  0  0  0  0  0
   13.8343   37.3616   17.2670 C   0  0  0  0  0  0  0  0  0  0  0  0
   12.4524   37.3037   17.6630 C   0  0  0  0  0  0  0  0  0  0  0  0
    8.3017   38.7638   19.7631 H   0  0  0  0  0  0  0  0  0  0  0  0
    6.6803   38.6735   20.2834 H   0  0  0  0  0  0  0  0  0  0  0  0
    8.7790   32.9573   17.8072 H   0  0  0  0  0  0  0  0  0  0  0  0
   11.0513   33.7327   17.4114 H   0  0  0  0  0  0  0  0  0  0  0  0
   11.6589   36.0449   17.8876 H   0  0  0  0  0  0  0  0  0  0  0  0
    3.9942   35.2175   20.1595 H   0  0  0  0  0  0  0  0  0  0  0  0
    4.4991   33.7447   19.4639 H   0  0  0  0  0  0  0  0  0  0  0  0
   12.5437   39.7783   19.9660 H   0  0  0  0  0  0  0  0  0  0  0  0
   14.8945   39.9173   19.2224 H   0  0  0  0  0  0  0  0  0  0  0  0
   15.6927   38.2304   17.6227 H   0  0  0  0  0  0  0  0  0  0  0  0
   14.1847   36.7329   16.5273 H   0  0  0  0  0  0  0  0  0  0  0  0
   11.8021   36.6054   17.2701 H   0  0  0  0  0  0  0  0  0  0  0  0
  1  2  1  0
  2  3  2  0
  3  4  1  0
  4  5  2  0
  1  6  2  0
  5  6  1  0
  3  7  1  0
  1  8  1  0
  8  9  2  0
  9 10  1  0
  2 11  1  0
 10 11  2  0
  5 12  1  0
 11 13  1  0
 13 14  1  0
 14 15  2  0
 15 16  1  0
 16 17  2  0
 17 18  1  0
 14 19  1  0
 18 19  2  0
  7 20  1  0
  7 21  1  0
  8 22  1  0
  9 23  1  0
 10 24  1  0
 12 25  1  0
 12 26  1  0
 15 27  1  0
 16 28  1  0
 17 29  1  0
 18 30  1  0
 19 31  1  0
M  END
