8HFN_XGC_A_502
     RDKit          3D

 41 42  0  0  0  0  0  0  0  0999 V2000
   70.5169   -2.6987    1.2405 C   0  0  0  0  0  0  0  0  0  0  0  0
   76.5450   -2.9399    0.3942 C   0  0  0  0  0  0  0  0  0  0  0  0
   77.6314   -3.6649    0.8862 C   0  0  0  0  0  0  0  0  0  0  0  0
   77.8671   -4.9569    0.4129 C   0  0  0  0  0  0  0  0  0  0  0  0
   75.9722   -4.8089   -1.0193 C   0  0  0  0  0  0  0  0  0  0  0  0
   72.6331   -1.2601   -0.7443 C   0  0  0  0  0  0  0  0  0  0  0  0
   74.5347   -2.7467   -1.1035 C   0  0  0  0  0  0  0  0  0  0  0  0
   74.2195   -2.7901   -2.4739 C   0  0  0  0  0  0  0  0  0  0  0  0
   72.3310   -1.3194   -2.1097 C   0  0  0  0  0  0  0  0  0  0  0  0
   73.1237   -2.0800   -2.9709 C   0  0  0  0  0  0  0  0  0  0  0  0
   70.8588   -3.3156   -0.0920 C   0  0  2  0  0  0  0  0  0  0  0  0
   75.6954   -3.5054   -0.5715 C   0  0  0  0  0  0  0  0  0  0  0  0
   79.5533   -6.7559    0.1910 C   0  0  1  0  0  0  0  0  0  0  0  0
   70.4823   -4.8049   -0.1070 C   0  0  1  0  0  0  0  0  0  0  0  0
   73.7301   -1.9757   -0.2435 C   0  0  0  0  0  0  0  0  0  0  0  0
   70.9343   -1.3628    1.5451 N   0  0  0  0  0  0  0  0  0  0  0  0
   77.0357   -5.4946   -0.5222 N   0  0  0  0  0  0  0  0  0  0  0  0
   72.2907   -3.1608   -0.3522 N   0  0  0  0  0  0  0  0  0  0  0  0
   69.8377   -3.3560    2.0757 O   0  0  0  0  0  0  0  0  0  0  0  0
   78.9553   -5.6819    0.9069 O   0  0  0  0  0  0  0  0  0  0  0  0
   70.4969    0.3049   -0.4581 O   0  0  0  0  0  0  0  0  0  0  0  0
   72.3960    0.7734    0.9997 O   0  0  0  0  0  0  0  0  0  0  0  0
   68.6860   -5.0281   -0.3202 S   0  0  0  0  0  0  0  0  0  0  0  0
   71.6081   -0.3218    0.3366 S   0  0  2  0  0  6  0  0  0  0  0  0
   76.3805   -1.9324    0.7550 H   0  0  0  0  0  0  0  0  0  0  0  0
   78.2872   -3.2252    1.6270 H   0  0  0  0  0  0  0  0  0  0  0  0
   75.3344   -5.2899   -1.7491 H   0  0  0  0  0  0  0  0  0  0  0  0
   74.8291   -3.3601   -3.1637 H   0  0  0  0  0  0  0  0  0  0  0  0
   71.4803   -0.7793   -2.5061 H   0  0  0  0  0  0  0  0  0  0  0  0
   72.8893   -2.1185   -4.0270 H   0  0  0  0  0  0  0  0  0  0  0  0
   70.2919   -2.7979   -0.8990 H   0  0  0  0  0  0  0  0  0  0  0  0
   78.7794   -7.3078   -0.3834 H   0  0  0  0  0  0  0  0  0  0  0  0
   80.3037   -6.3487   -0.5171 H   0  0  0  0  0  0  0  0  0  0  0  0
   80.0619   -7.4464    0.8964 H   0  0  0  0  0  0  0  0  0  0  0  0
   70.9930   -5.3109   -0.9541 H   0  0  0  0  0  0  0  0  0  0  0  0
   70.8048   -5.2958    0.8368 H   0  0  0  0  0  0  0  0  0  0  0  0
   73.9415   -1.9515    0.8178 H   0  0  0  0  0  0  0  0  0  0  0  0
   70.8268   -0.9914    2.5150 H   0  0  0  0  0  0  0  0  0  0  0  0
   72.4378   -3.1553   -1.3884 H   0  0  0  0  0  0  0  0  0  0  0  0
   72.7853   -4.0120    0.0022 H   0  0  0  0  0  0  0  0  0  0  0  0
   68.8145   -5.2684   -1.7013 H   0  0  0  0  0  0  0  0  0  0  0  0
  2  3  2  0
  3  4  1  0
  7  8  1  0
  6  9  2  0
  8 10  2  0
  9 10  1  0
  1 11  1  0
  2 12  1  0
  5 12  2  0
  7 12  1  0
 11 14  1  0
  7 15  2  0
  6 15  1  0
  1 16  1  0
  4 17  2  0
  5 17  1  0
 11 18  1  0
  1 19  2  0
 13 20  1  0
  4 20  1  0
 14 23  1  0
 21 24  2  0
  6 24  1  0
 22 24  2  0
 24 16  1  1
  2 25  1  0
  3 26  1  0
  5 27  1  0
  8 28  1  0
  9 29  1  0
 10 30  1  0
 11 31  1  6
 13 32  1  6
 13 33  1  0
 13 34  1  0
 14 35  1  6
 14 36  1  0
 15 37  1  0
 16 38  1  0
 18 39  1  0
 18 40  1  0
 23 41  1  0
M  END
