8FV9_80J_BBB_801
     RDKit          3D

 44 45  0  0  0  0  0  0  0  0999 V2000
  -19.9952    0.4364    1.2404 C   0  0  2  0  0  0  0  0  0  0  0  0
  -17.8036   -0.6921    0.8196 C   0  0  0  0  0  0  0  0  0  0  0  0
  -20.8814   -0.5065    2.0316 C   0  0  1  0  0  0  0  0  0  0  0  0
  -21.2466    0.3246    3.2295 C   0  0  1  0  0  0  0  0  0  0  0  0
  -17.3424   -1.7323   -1.2607 C   0  0  0  0  0  0  0  0  0  0  0  0
  -20.0484    1.2765    3.3593 C   0  0  1  0  0  0  0  0  0  0  0  0
  -18.6149   -1.3981   -1.7158 C   0  0  0  0  0  0  0  0  0  0  0  0
  -19.1283    0.8604    4.5142 C   0  0  2  0  0  0  0  0  0  0  0  0
  -19.4599   -0.6817   -0.8695 C   0  0  0  0  0  0  0  0  0  0  0  0
  -21.9931   -0.8907    1.2974 F   0  0  0  0  0  0  0  0  0  0  0  0
  -19.0508   -0.3099    0.3812 N   0  0  0  0  0  0  0  0  0  0  0  0
  -16.9691   -1.3788   -0.0052 N   0  0  0  0  0  0  0  0  0  0  0  0
  -16.4341   -2.4456   -2.1023 N   0  0  0  0  0  0  0  0  0  0  0  0
  -16.7326    0.6266    5.8838 O   0  0  0  0  0  0  0  0  0  0  0  0
  -14.4313   -0.0474    5.8956 O   0  0  0  0  0  0  0  0  0  0  0  0
  -11.4219   -3.8734    5.2211 O   0  0  0  0  0  0  0  0  0  0  0  0
  -17.4132   -0.4165    1.9844 O   0  0  0  0  0  0  0  0  0  0  0  0
  -15.9298    0.5363    3.4005 O   0  0  0  0  0  0  0  0  0  0  0  0
  -14.7927   -2.1967    7.3587 O   0  0  0  0  0  0  0  0  0  0  0  0
  -12.0350   -2.4205    7.3183 O   0  0  0  0  0  0  0  0  0  0  0  0
  -22.4194    1.0541    2.9706 O   0  0  0  0  0  0  0  0  0  0  0  0
  -16.1862   -1.7504    4.9478 O   0  0  0  0  0  0  0  0  0  0  0  0
  -13.4678   -2.2515    4.9004 O   0  0  0  0  0  0  0  0  0  0  0  0
  -13.6189   -4.5133    6.4745 O   0  0  0  0  0  0  0  0  0  0  0  0
  -19.3139    1.2741    2.1484 O   0  0  0  0  0  0  0  0  0  0  0  0
  -18.4751   -0.3400    4.1723 O   0  0  0  0  0  0  0  0  0  0  0  0
  -16.8333   -0.2094    4.6249 P   0  0  1  0  0  5  0  0  0  0  0  0
  -14.7225   -1.5292    5.7951 P   0  0  1  0  0  5  0  0  0  0  0  0
  -12.5975   -3.2661    5.9568 P   0  0  1  0  0  5  0  0  0  0  0  0
  -20.6414    1.0946    0.6125 H   0  0  0  0  0  0  0  0  0  0  0  0
  -20.3136   -1.4076    2.3560 H   0  0  0  0  0  0  0  0  0  0  0  0
  -21.3904   -0.3306    4.1210 H   0  0  0  0  0  0  0  0  0  0  0  0
  -20.4016    2.3136    3.5593 H   0  0  0  0  0  0  0  0  0  0  0  0
  -18.9453   -1.6822   -2.7081 H   0  0  0  0  0  0  0  0  0  0  0  0
  -19.7481    0.7428    5.4358 H   0  0  0  0  0  0  0  0  0  0  0  0
  -18.3763    1.6670    4.6764 H   0  0  0  0  0  0  0  0  0  0  0  0
  -20.4503   -0.4216   -1.2284 H   0  0  0  0  0  0  0  0  0  0  0  0
  -16.6462   -3.4197   -2.4147 H   0  0  0  0  0  0  0  0  0  0  0  0
  -15.5740   -1.9731   -2.4629 H   0  0  0  0  0  0  0  0  0  0  0  0
  -15.4833   -0.2072    2.9240 H   0  0  0  0  0  0  0  0  0  0  0  0
  -15.6183   -2.7451    7.3742 H   0  0  0  0  0  0  0  0  0  0  0  0
  -12.4305   -1.5150    7.2369 H   0  0  0  0  0  0  0  0  0  0  0  0
  -22.7381    1.3928    3.8501 H   0  0  0  0  0  0  0  0  0  0  0  0
  -13.2130   -4.8326    7.3189 H   0  0  0  0  0  0  0  0  0  0  0  0
  1  3  1  0
  3  4  1  0
  4  6  1  0
  5  7  1  0
  6  8  1  0
  7  9  2  0
  3 10  1  0
  9 11  1  0
  2 11  1  0
  1 11  1  0
  5 12  2  0
  2 12  1  0
  5 13  1  0
  2 17  2  0
  4 21  1  0
  1 25  1  0
  6 25  1  0
  8 26  1  0
 14 27  2  0
 27 22  1  1
 26 27  1  0
 27 18  1  0
 28 23  1  6
 15 28  2  0
 28 19  1  0
 22 28  1  0
 16 29  2  0
 29 24  1  1
 23 29  1  0
 20 29  1  0
  1 30  1  6
  3 31  1  1
  4 32  1  1
  6 33  1  1
  7 34  1  0
  8 35  1  1
  8 36  1  0
  9 37  1  0
 13 38  1  0
 13 39  1  0
 18 40  1  0
 19 41  1  0
 20 42  1  0
 21 43  1  0
 24 44  1  0
M  END
