7BLG_GAL_A_201
     RDKit          3D

 24 24  0  0  0  0  0  0  0  0999 V2000
   -1.1272    0.9705   -0.9082 C   0  0  1  0  0  0  0  0  0  0  0  0
   -0.8690   -0.2186    0.0517 C   0  0  2  0  0  0  0  0  0  0  0  0
   -1.6943   -1.4325   -0.3932 C   0  0  1  0  0  0  0  0  0  0  0  0
   -1.3152   -1.8248   -1.8404 C   0  0  1  0  0  0  0  0  0  0  0  0
   -0.9905   -0.5779   -2.7235 C   0  0  2  0  0  0  0  0  0  0  0  0
    0.5017   -0.3574   -3.0596 C   0  0  0  0  0  0  0  0  0  0  0  0
    0.0245    1.7662   -1.0077 O   0  0  0  0  0  0  0  0  0  0  0  0
   -1.2219    0.1570    1.3597 O   0  0  0  0  0  0  0  0  0  0  0  0
   -1.4856   -2.5211    0.4719 O   0  0  0  0  0  0  0  0  0  0  0  0
   -0.2869   -2.7872   -1.8804 O   0  0  0  0  0  0  0  0  0  0  0  0
   -1.5905    0.6017   -2.2067 O   0  0  0  0  0  0  0  0  0  0  0  0
    1.1791   -1.5843   -3.0744 O   0  0  0  0  0  0  0  0  0  0  0  0
   -1.9357    1.5902   -0.4563 H   0  0  0  0  0  0  0  0  0  0  0  0
    0.2139   -0.4847    0.0212 H   0  0  0  0  0  0  0  0  0  0  0  0
   -2.7746   -1.1464   -0.3840 H   0  0  0  0  0  0  0  0  0  0  0  0
   -2.2171   -2.3125   -2.2732 H   0  0  0  0  0  0  0  0  0  0  0  0
   -1.4821   -0.7588   -3.7054 H   0  0  0  0  0  0  0  0  0  0  0  0
    0.5763    0.1078   -4.0680 H   0  0  0  0  0  0  0  0  0  0  0  0
    0.9802    0.3264   -2.3267 H   0  0  0  0  0  0  0  0  0  0  0  0
   -0.2325    2.5711   -1.5287 H   0  0  0  0  0  0  0  0  0  0  0  0
   -0.6978   -0.4149    1.9794 H   0  0  0  0  0  0  0  0  0  0  0  0
   -2.0967   -2.4003    1.2450 H   0  0  0  0  0  0  0  0  0  0  0  0
    0.4578   -2.4671   -1.3086 H   0  0  0  0  0  0  0  0  0  0  0  0
    2.1244   -1.3752   -3.2923 H   0  0  0  0  0  0  0  0  0  0  0  0
  1  2  1  0
  2  3  1  0
  3  4  1  0
  4  5  1  0
  5  6  1  0
  1  7  1  0
  2  8  1  0
  3  9  1  0
  4 10  1  0
  1 11  1  0
  5 11  1  0
  6 12  1  0
  1 13  1  6
  2 14  1  6
  3 15  1  1
  4 16  1  1
  5 17  1  1
  6 18  1  0
  6 19  1  0
  7 20  1  0
  8 21  1  0
  9 22  1  0
 10 23  1  0
 12 24  1  0
M  END
