7RH3_59O_A_302
     RDKit          3D

 34 36  0  0  0  0  0  0  0  0999 V2000
   13.9543   -4.9687   -0.1145 C   0  0  0  0  0  0  0  0  0  0  0  0
   17.2849   -9.3205   -1.9297 C   0  0  0  0  0  0  0  0  0  0  0  0
   23.8360  -10.8859   -4.0589 O   0  0  0  0  0  0  0  0  0  0  0  0
   22.8737   -9.8428   -3.9682 C   0  0  0  0  0  0  0  0  0  0  0  0
   23.5378   -8.2321    0.2351 C   0  0  0  0  0  0  0  0  0  0  0  0
   20.5299   -9.5976   -3.1436 C   0  0  2  0  0  0  0  0  0  0  0  0
   19.6357   -9.6210   -1.9443 C   0  0  1  0  0  0  0  0  0  0  0  0
   21.6717   -9.4152   -0.5589 C   0  0  1  0  0  0  0  0  0  0  0  0
   20.2344   -8.9903   -0.6832 C   0  0  1  0  0  0  0  0  0  0  0  0
   21.9462  -10.0143   -2.7892 C   0  0  2  0  0  0  0  0  0  0  0  0
   22.4519   -9.1725   -1.7394 O   0  0  0  0  0  0  0  0  0  0  0  0
   22.2276   -8.6899    0.5047 O   0  0  0  0  0  0  0  0  0  0  0  0
   20.2489   -7.5386   -0.8075 O   0  0  0  0  0  0  0  0  0  0  0  0
   20.0257   -6.8353    0.2933 C   0  0  0  0  0  0  0  0  0  0  0  0
   18.4440   -8.9339   -2.4062 O   0  0  0  0  0  0  0  0  0  0  0  0
   20.5120   -8.2772   -3.6966 O   0  0  0  0  0  0  0  0  0  0  0  0
   16.9844  -10.4639   -1.8568 O   0  0  0  0  0  0  0  0  0  0  0  0
   20.2716   -7.2580    1.4164 O   0  0  0  0  0  0  0  0  0  0  0  0
   19.6224   -5.4206    0.0122 C   0  0  0  0  0  0  0  0  0  0  0  0
   16.4281   -8.1867   -1.4616 C   0  0  0  0  0  0  0  0  0  0  0  0
   15.8617   -8.2119   -0.1851 C   0  0  0  0  0  0  0  0  0  0  0  0
   16.2019   -7.0781   -2.2711 C   0  0  0  0  0  0  0  0  0  0  0  0
   15.0876   -7.1526    0.2433 C   0  0  0  0  0  0  0  0  0  0  0  0
   15.4134   -6.0503   -1.8109 C   0  0  0  0  0  0  0  0  0  0  0  0
   14.8555   -6.0640   -0.5714 C   0  0  0  0  0  0  0  0  0  0  0  0
   20.3870   -4.4204    0.6109 C   0  0  0  0  0  0  0  0  0  0  0  0
   18.5011   -5.0195   -0.7131 C   0  0  0  0  0  0  0  0  0  0  0  0
   20.0306   -3.0819    0.5023 C   0  0  0  0  0  0  0  0  0  0  0  0
   18.1086   -3.7088   -0.8178 C   0  0  0  0  0  0  0  0  0  0  0  0
   17.6583   -6.0331   -1.3608 N   0  0  0  0  0  0  0  0  0  0  0  0
   18.8971   -2.7520   -0.2052 C   0  0  0  0  0  0  0  0  0  0  0  0
   18.3819   -1.1356   -0.2888 Cl  0  0  0  0  0  0  0  0  0  0  0  0
   17.7372   -7.1952   -0.8996 O   0  0  0  0  0  0  0  0  0  0  0  0
   16.8516   -5.7053   -2.2458 O   0  0  0  0  0  0  0  0  0  0  0  0
  3  4  1  0
  6  7  1  0
  8  9  1  0
  7  9  1  0
  6 10  1  0
 10  4  1  6
  8 11  1  0
 10 11  1  0
  5 12  1  0
  8 12  1  1
  9 13  1  6
 13 14  1  0
  2 15  1  0
  7 15  1  6
  6 16  1  1
  2 17  2  0
 14 18  2  0
 14 19  1  0
  2 20  1  0
 20 21  2  0
 20 22  1  0
 21 23  1  0
 22 24  2  0
 23 25  2  0
  1 25  1  0
 24 25  1  0
 19 26  2  0
 19 27  1  0
 26 28  1  0
 27 29  2  0
 27 30  1  0
 28 31  2  0
 29 31  1  0
 31 32  1  0
 30 33  2  0
 30 34  1  0
M  CHG  2  30   1  34  -1
M  END
