7DIN_MPO_A_201
     RDKit          3D

 28 28  0  0  0  0  0  0  0  0999 V2000
    3.7113   -0.3388   -0.2459 S   0  0  2  0  0  6  0  0  0  0  0  0
    4.9493   -0.7584   -0.9864 O   0  0  0  0  0  0  0  0  0  0  0  0
    2.5889   -1.2816   -0.5817 O   0  0  0  0  0  0  0  0  0  0  0  0
    3.9269   -1.7639   -0.7495 O   0  0  0  0  0  0  0  0  0  0  0  0
    2.2161   -0.4336    1.0964 N   0  0  0  0  0  0  0  0  0  0  0  0
    3.2778    1.3410   -0.6929 C   0  0  0  0  0  0  0  0  0  0  0  0
    4.0204   -0.4079    1.4049 O   0  0  0  0  0  0  0  0  0  0  0  0
    2.0299    1.8527    0.0403 C   0  0  0  0  0  0  0  0  0  0  0  0
    1.5649    0.8926    1.1492 C   0  0  0  0  0  0  0  0  0  0  0  0
    1.6873   -1.3753    0.0885 C   0  0  0  0  0  0  0  0  0  0  0  0
    2.5998   -1.4884   -1.1391 C   0  0  0  0  0  0  0  0  0  0  0  0
    4.4397   -0.6551   -0.0444 C   0  0  0  0  0  0  0  0  0  0  0  0
    3.6834   -0.4471    1.2758 C   0  0  0  0  0  0  0  0  0  0  0  0
    3.1333    1.4035   -1.7926 H   0  0  0  0  0  0  0  0  0  0  0  0
    4.1343    1.9963   -0.4274 H   0  0  0  0  0  0  0  0  0  0  0  0
    3.1558   -0.1899    1.8362 H   0  0  0  0  0  0  0  0  0  0  0  0
    2.2408    2.8570    0.4600 H   0  0  0  0  0  0  0  0  0  0  0  0
    1.2253    1.9524   -0.7149 H   0  0  0  0  0  0  0  0  0  0  0  0
    1.7553    1.3540    2.1432 H   0  0  0  0  0  0  0  0  0  0  0  0
    0.4666    0.7494    1.0804 H   0  0  0  0  0  0  0  0  0  0  0  0
    0.6634   -1.0876   -0.2371 H   0  0  0  0  0  0  0  0  0  0  0  0
    1.6061   -2.3787    0.5595 H   0  0  0  0  0  0  0  0  0  0  0  0
    2.5465   -0.5769   -1.7738 H   0  0  0  0  0  0  0  0  0  0  0  0
    2.2386   -2.3299   -1.7671 H   0  0  0  0  0  0  0  0  0  0  0  0
    4.4296    0.2615   -0.6732 H   0  0  0  0  0  0  0  0  0  0  0  0
    5.5061   -0.8557    0.1918 H   0  0  0  0  0  0  0  0  0  0  0  0
    3.9391   -1.2841    1.9603 H   0  0  0  0  0  0  0  0  0  0  0  0
    4.0413    0.4878    1.7605 H   0  0  0  0  0  0  0  0  0  0  0  0
  1  2  2  0
  1  3  2  0
  1  6  1  0
  1  7  1  1
  6  8  1  0
  5  9  1  0
  8  9  1  0
  5 10  1  0
  4 11  1  0
 10 11  1  0
  4 12  1  0
  5 13  1  0
 12 13  1  0
  6 14  1  0
  6 15  1  0
  7 16  1  0
  8 17  1  0
  8 18  1  0
  9 19  1  0
  9 20  1  0
 10 21  1  0
 10 22  1  0
 11 23  1  0
 11 24  1  0
 12 25  1  0
 12 26  1  0
 13 27  1  0
 13 28  1  0
M  END
