1N46_PFA_A_462
     RDKit          3D

 27 29  0  0  0  0  0  0  0  0999 V2000
   -4.3294   -8.0851   10.5701 O   0  0  0  0  0  0  0  0  0  0  0  0
   -5.0896   -8.1881    9.5696 C   0  0  0  0  0  0  0  0  0  0  0  0
   -6.1116   -9.0643    9.5257 N   0  0  0  0  0  0  0  0  0  0  0  0
   -6.8862   -9.1219    8.4224 C   0  0  0  0  0  0  0  0  0  0  0  0
   -7.8602   -9.9462    8.3618 O   0  0  0  0  0  0  0  0  0  0  0  0
   -4.8542   -7.3833    8.5158 N   0  0  0  0  0  0  0  0  0  0  0  0
   -5.6174   -7.4308    7.4124 N   0  0  0  0  0  0  0  0  0  0  0  0
   -6.6529   -8.3041    7.3426 C   0  0  0  0  0  0  0  0  0  0  0  0
   -3.7957   -6.4319    8.4837 C   0  0  0  0  0  0  0  0  0  0  0  0
   -3.9602   -5.2478    9.2033 C   0  0  0  0  0  0  0  0  0  0  0  0
   -2.9435   -4.3171    9.1816 C   0  0  0  0  0  0  0  0  0  0  0  0
   -3.1155   -3.0513    9.9490 C   0  0  0  0  0  0  0  0  0  0  0  0
   -2.6271   -6.6324    7.7771 C   0  0  0  0  0  0  0  0  0  0  0  0
   -1.6197   -5.6692    7.7775 C   0  0  0  0  0  0  0  0  0  0  0  0
   -0.3684   -5.9019    7.0113 C   0  0  0  0  0  0  0  0  0  0  0  0
   -1.7666   -4.4941    8.4834 C   0  0  0  0  0  0  0  0  0  0  0  0
   -0.8020   -3.5105    8.5167 O   0  0  0  0  0  0  0  0  0  0  0  0
    0.0704   -3.4728    9.5872 C   0  0  0  0  0  0  0  0  0  0  0  0
    0.1662   -4.4702   10.5352 C   0  0  0  0  0  0  0  0  0  0  0  0
    0.8843   -2.3466    9.6812 C   0  0  0  0  0  0  0  0  0  0  0  0
    1.7993   -2.1765   10.6959 C   0  0  0  0  0  0  0  0  0  0  0  0
    2.6460   -0.9457   10.7446 C   0  0  1  0  0  0  0  0  0  0  0  0
    3.4801   -0.9104    9.4985 C   0  0  0  0  0  0  0  0  0  0  0  0
    1.7877    0.2692   10.9413 C   0  0  0  0  0  0  0  0  0  0  0  0
    1.8936   -3.1766   11.6441 C   0  0  0  0  0  0  0  0  0  0  0  0
    1.0834   -4.2916   11.5454 C   0  0  0  0  0  0  0  0  0  0  0  0
    2.8039   -3.0564   12.6941 O   0  0  0  0  0  0  0  0  0  0  0  0
  1  2  2  0
  2  3  1  0
  3  4  1  0
  4  5  2  0
  2  6  1  0
  6  7  1  0
  4  8  1  0
  7  8  2  0
  6  9  1  0
  9 10  2  0
 10 11  1  0
 11 12  1  0
  9 13  1  0
 13 14  2  0
 14 15  1  0
 11 16  2  0
 14 16  1  0
 16 17  1  0
 17 18  1  0
 18 19  2  0
 18 20  1  0
 20 21  2  0
 21 22  1  0
 22 23  1  6
 22 24  1  0
 21 25  1  0
 19 26  1  0
 25 26  2  0
 25 27  1  0
M  END
$$$$
