1N46_PFA_A_462
     RDKit          3D

 27 29  0  0  0  0  0  0  0  0999 V2000
    3.7648    3.8088   -7.1206 O   0  0  0  0  0  0  0  0  0  0  0  0
    4.8654    3.8837   -7.7308 C   0  0  0  0  0  0  0  0  0  0  0  0
    5.6514    4.9760   -7.6723 N   0  0  0  0  0  0  0  0  0  0  0  0
    6.8177    4.9885   -8.3507 C   0  0  0  0  0  0  0  0  0  0  0  0
    7.5767    6.0151   -8.3076 O   0  0  0  0  0  0  0  0  0  0  0  0
    5.2519    2.8214   -8.4630 N   0  0  0  0  0  0  0  0  0  0  0  0
    6.4096    2.8214   -9.1424 N   0  0  0  0  0  0  0  0  0  0  0  0
    7.2194    3.9087   -9.1002 C   0  0  0  0  0  0  0  0  0  0  0  0
    4.4793    1.6311   -8.5760 C   0  0  0  0  0  0  0  0  0  0  0  0
    3.0969    1.7608   -8.7144 C   0  0  0  0  0  0  0  0  0  0  0  0
    2.3357    0.6167   -8.8249 C   0  0  0  0  0  0  0  0  0  0  0  0
    0.8589    0.7513   -8.9729 C   0  0  0  0  0  0  0  0  0  0  0  0
    5.0373    0.3688   -8.5544 C   0  0  0  0  0  0  0  0  0  0  0  0
    4.2369   -0.7664   -8.6688 C   0  0  0  0  0  0  0  0  0  0  0  0
    4.8547   -2.1172   -8.6435 C   0  0  0  0  0  0  0  0  0  0  0  0
    2.8695   -0.6554   -8.8061 C   0  0  0  0  0  0  0  0  0  0  0  0
    2.0340   -1.7449   -8.9228 O   0  0  0  0  0  0  0  0  0  0  0  0
    1.6381   -2.1455  -10.1842 C   0  0  0  0  0  0  0  0  0  0  0  0
    0.6467   -3.0754  -10.4188 C   0  0  0  0  0  0  0  0  0  0  0  0
    2.3014   -1.5540  -11.2565 C   0  0  0  0  0  0  0  0  0  0  0  0
    2.0097   -1.8587  -12.5671 C   0  0  0  0  0  0  0  0  0  0  0  0
    2.7557   -1.1910  -13.6770 C   0  0  1  0  0  0  0  0  0  0  0  0
    3.4068   -2.2602  -14.5033 C   0  0  0  0  0  0  0  0  0  0  0  0
    1.8395   -0.2909  -14.4527 C   0  0  0  0  0  0  0  0  0  0  0  0
    1.0166   -2.7902  -12.7997 C   0  0  0  0  0  0  0  0  0  0  0  0
    0.3621   -3.3736  -11.7317 C   0  0  0  0  0  0  0  0  0  0  0  0
    0.6800   -3.1366  -14.1083 O   0  0  0  0  0  0  0  0  0  0  0  0
  1  2  2  0
  2  3  1  0
  3  4  1  0
  4  5  2  0
  2  6  1  0
  6  7  1  0
  4  8  1  0
  7  8  2  0
  6  9  1  0
  9 10  2  0
 10 11  1  0
 11 12  1  0
  9 13  1  0
 13 14  2  0
 14 15  1  0
 11 16  2  0
 14 16  1  0
 16 17  1  0
 17 18  1  0
 18 19  2  0
 18 20  1  0
 20 21  2  0
 21 22  1  0
 22 23  1  6
 22 24  1  0
 21 25  1  0
 19 26  1  0
 25 26  2  0
 25 27  1  0
M  END
$$$$
