1N46_PFA_A_462
     RDKit          3D

 27 29  0  0  0  0  0  0  0  0999 V2000
   15.0533   -2.0936  -38.0503 O   0  0  0  0  0  0  0  0  0  0  0  0
   15.5652   -1.7135  -39.1379 C   0  0  0  0  0  0  0  0  0  0  0  0
   16.6027   -0.8560  -39.1877 N   0  0  0  0  0  0  0  0  0  0  0  0
   17.1018   -0.4909  -40.3869 C   0  0  0  0  0  0  0  0  0  0  0  0
   18.0856    0.3212  -40.4547 O   0  0  0  0  0  0  0  0  0  0  0  0
   15.0406   -2.1941  -40.2815 N   0  0  0  0  0  0  0  0  0  0  0  0
   15.5280   -1.8386  -41.4808 N   0  0  0  0  0  0  0  0  0  0  0  0
   16.5723   -0.9767  -41.5586 C   0  0  0  0  0  0  0  0  0  0  0  0
   13.9452   -3.1027  -40.3142 C   0  0  0  0  0  0  0  0  0  0  0  0
   14.2280   -4.4610  -40.4631 C   0  0  0  0  0  0  0  0  0  0  0  0
   13.1773   -5.3528  -40.4964 C   0  0  0  0  0  0  0  0  0  0  0  0
   13.4754   -6.8043  -40.6553 C   0  0  0  0  0  0  0  0  0  0  0  0
   12.6302   -2.6977  -40.2056 C   0  0  0  0  0  0  0  0  0  0  0  0
   11.5926   -3.6275  -40.2434 C   0  0  0  0  0  0  0  0  0  0  0  0
   10.1830   -3.1736  -40.1250 C   0  0  0  0  0  0  0  0  0  0  0  0
   11.8551   -4.9730  -40.3900 C   0  0  0  0  0  0  0  0  0  0  0  0
   10.8668   -5.9323  -40.4332 O   0  0  0  0  0  0  0  0  0  0  0  0
   10.3522   -6.4090  -39.2431 C   0  0  0  0  0  0  0  0  0  0  0  0
   10.7324   -5.9442  -38.0013 C   0  0  0  0  0  0  0  0  0  0  0  0
    9.3965   -7.4170  -39.3431 C   0  0  0  0  0  0  0  0  0  0  0  0
    8.7999   -7.9843  -38.2395 C   0  0  0  0  0  0  0  0  0  0  0  0
    7.7798   -9.0636  -38.4093 C   0  0  1  0  0  0  0  0  0  0  0  0
    6.6786   -8.5252  -39.2737 C   0  0  0  0  0  0  0  0  0  0  0  0
    8.4236  -10.3093  -38.9433 C   0  0  0  0  0  0  0  0  0  0  0  0
    9.1822   -7.5173  -36.9970 C   0  0  0  0  0  0  0  0  0  0  0  0
   10.1309   -6.5171  -36.9042 C   0  0  0  0  0  0  0  0  0  0  0  0
    8.6100   -8.0565  -35.8447 O   0  0  0  0  0  0  0  0  0  0  0  0
  1  2  2  0
  2  3  1  0
  3  4  1  0
  4  5  2  0
  2  6  1  0
  6  7  1  0
  4  8  1  0
  7  8  2  0
  6  9  1  0
  9 10  2  0
 10 11  1  0
 11 12  1  0
  9 13  1  0
 13 14  2  0
 14 15  1  0
 11 16  2  0
 14 16  1  0
 16 17  1  0
 17 18  1  0
 18 19  2  0
 18 20  1  0
 20 21  2  0
 21 22  1  0
 22 23  1  6
 22 24  1  0
 21 25  1  0
 19 26  1  0
 25 26  2  0
 25 27  1  0
M  END
$$$$
