1N46_PFA_A_462
     RDKit          3D

 27 29  0  0  0  0  0  0  0  0999 V2000
    2.4541   11.7175  -29.5741 O   0  0  0  0  0  0  0  0  0  0  0  0
    2.0354   12.8988  -29.7103 C   0  0  0  0  0  0  0  0  0  0  0  0
    2.3750   13.8883  -28.8618 N   0  0  0  0  0  0  0  0  0  0  0  0
    1.8903   15.1307  -29.0669 C   0  0  0  0  0  0  0  0  0  0  0  0
    2.2009   16.0822  -28.2732 O   0  0  0  0  0  0  0  0  0  0  0  0
    1.2194   13.1608  -30.7492 N   0  0  0  0  0  0  0  0  0  0  0  0
    0.7305   14.3924  -30.9642 N   0  0  0  0  0  0  0  0  0  0  0  0
    1.0570   15.4064  -30.1246 C   0  0  0  0  0  0  0  0  0  0  0  0
    0.8139   12.1718  -31.6894 C   0  0  0  0  0  0  0  0  0  0  0  0
   -0.1942   11.2847  -31.3101 C   0  0  0  0  0  0  0  0  0  0  0  0
   -0.5972   10.3216  -32.2103 C   0  0  0  0  0  0  0  0  0  0  0  0
   -1.6736    9.3724  -31.8087 C   0  0  0  0  0  0  0  0  0  0  0  0
    1.3722   12.0573  -32.9466 C   0  0  0  0  0  0  0  0  0  0  0  0
    0.9399   11.0710  -33.8313 C   0  0  0  0  0  0  0  0  0  0  0  0
    1.5521   10.9624  -35.1806 C   0  0  0  0  0  0  0  0  0  0  0  0
   -0.0551   10.1868  -33.4719 C   0  0  0  0  0  0  0  0  0  0  0  0
   -0.5183    9.1945  -34.3083 O   0  0  0  0  0  0  0  0  0  0  0  0
   -1.3885    9.5365  -35.3252 C   0  0  0  0  0  0  0  0  0  0  0  0
   -1.3741   10.7555  -35.9707 C   0  0  0  0  0  0  0  0  0  0  0  0
   -2.3202    8.5686  -35.6926 C   0  0  0  0  0  0  0  0  0  0  0  0
   -3.2472    8.7735  -36.6897 C   0  0  0  0  0  0  0  0  0  0  0  0
   -4.2229    7.6968  -37.0403 C   0  0  1  0  0  0  0  0  0  0  0  0
   -3.4478    6.5268  -37.5696 C   0  0  0  0  0  0  0  0  0  0  0  0
   -5.0883    7.3732  -35.8579 C   0  0  0  0  0  0  0  0  0  0  0  0
   -3.2309    9.9949  -37.3347 C   0  0  0  0  0  0  0  0  0  0  0  0
   -2.3042   10.9511  -36.9658 C   0  0  0  0  0  0  0  0  0  0  0  0
   -4.1479   10.2564  -38.3528 O   0  0  0  0  0  0  0  0  0  0  0  0
  1  2  2  0
  2  3  1  0
  3  4  1  0
  4  5  2  0
  2  6  1  0
  6  7  1  0
  4  8  1  0
  7  8  2  0
  6  9  1  0
  9 10  2  0
 10 11  1  0
 11 12  1  0
  9 13  1  0
 13 14  2  0
 14 15  1  0
 11 16  2  0
 14 16  1  0
 16 17  1  0
 17 18  1  0
 18 19  2  0
 18 20  1  0
 20 21  2  0
 21 22  1  0
 22 23  1  1
 22 24  1  0
 21 25  1  0
 19 26  1  0
 25 26  2  0
 25 27  1  0
M  END
$$$$
