1N46_PFA_A_462
     RDKit          3D

 27 29  0  0  0  0  0  0  0  0999 V2000
   23.4035    1.2993  -13.9409 O   0  0  0  0  0  0  0  0  0  0  0  0
   22.9814    2.4066  -14.3714 C   0  0  0  0  0  0  0  0  0  0  0  0
   23.7119    3.5359  -14.2995 N   0  0  0  0  0  0  0  0  0  0  0  0
   23.1984    4.6874  -14.7799 C   0  0  0  0  0  0  0  0  0  0  0  0
   23.8758    5.7688  -14.7208 O   0  0  0  0  0  0  0  0  0  0  0  0
   21.7519    2.4405  -14.9199 N   0  0  0  0  0  0  0  0  0  0  0  0
   21.2296    3.5795  -15.4015 N   0  0  0  0  0  0  0  0  0  0  0  0
   21.9444    4.7306  -15.3413 C   0  0  0  0  0  0  0  0  0  0  0  0
   20.9179    1.2924  -15.0332 C   0  0  0  0  0  0  0  0  0  0  0  0
   19.6069    1.3890  -14.5651 C   0  0  0  0  0  0  0  0  0  0  0  0
   18.7876    0.2851  -14.6681 C   0  0  0  0  0  0  0  0  0  0  0  0
   17.3868    0.3846  -14.1693 C   0  0  0  0  0  0  0  0  0  0  0  0
   21.3499    0.1015  -15.5813 C   0  0  0  0  0  0  0  0  0  0  0  0
   20.4938   -0.9947  -15.6696 C   0  0  0  0  0  0  0  0  0  0  0  0
   20.9759   -2.2686  -16.2626 C   0  0  0  0  0  0  0  0  0  0  0  0
   19.1958   -0.9156  -15.2117 C   0  0  0  0  0  0  0  0  0  0  0  0
   18.3096   -1.9689  -15.2755 O   0  0  0  0  0  0  0  0  0  0  0  0
   18.4833   -3.0351  -14.4143 C   0  0  0  0  0  0  0  0  0  0  0  0
   17.7187   -4.1827  -14.4492 C   0  0  0  0  0  0  0  0  0  0  0  0
   19.4988   -2.9071  -13.4699 C   0  0  0  0  0  0  0  0  0  0  0  0
   19.7830   -3.8912  -12.5498 C   0  0  0  0  0  0  0  0  0  0  0  0
   20.8858   -3.6972  -11.5597 C   0  0  1  0  0  0  0  0  0  0  0  0
   22.1708   -3.5622  -12.3215 C   0  0  0  0  0  0  0  0  0  0  0  0
   20.5812   -2.5338  -10.6623 C   0  0  0  0  0  0  0  0  0  0  0  0
   19.0161   -5.0395  -12.5866 C   0  0  0  0  0  0  0  0  0  0  0  0
   18.0100   -5.1606  -13.5258 C   0  0  0  0  0  0  0  0  0  0  0  0
   19.2605   -6.0689  -11.6775 O   0  0  0  0  0  0  0  0  0  0  0  0
  1  2  2  0
  2  3  1  0
  3  4  1  0
  4  5  2  0
  2  6  1  0
  6  7  1  0
  4  8  1  0
  7  8  2  0
  6  9  1  0
  9 10  2  0
 10 11  1  0
 11 12  1  0
  9 13  1  0
 13 14  2  0
 14 15  1  0
 11 16  2  0
 14 16  1  0
 16 17  1  0
 17 18  1  0
 18 19  2  0
 18 20  1  0
 20 21  2  0
 21 22  1  0
 22 23  1  6
 22 24  1  0
 21 25  1  0
 19 26  1  0
 25 26  2  0
 25 27  1  0
M  END
$$$$
