7V3N_AKG_A_1403
     RDKit          3D

 16 15  0  0  0  0  0  0  0  0999 V2000
  126.9618   79.5620   -5.4438 C   0  0  0  0  0  0  0  0  0  0  0  0
  126.9778   80.6333   -6.1076 O   0  0  0  0  0  0  0  0  0  0  0  0
  126.3716   78.4242   -5.9857 O   0  0  0  0  0  0  0  0  0  0  0  0
  127.5602   79.5047   -4.1000 C   0  0  0  0  0  0  0  0  0  0  0  0
  127.8740   78.3852   -3.6140 O   0  0  0  0  0  0  0  0  0  0  0  0
  127.7728   80.7465   -3.2760 C   0  0  2  0  0  0  0  0  0  0  0  0
  128.9937   80.6158   -2.3584 C   0  0  2  0  0  0  0  0  0  0  0  0
  128.6615   80.9740   -0.9424 C   0  0  0  0  0  0  0  0  0  0  0  0
  129.5839   81.1691   -0.1064 O   0  0  0  0  0  0  0  0  0  0  0  0
  127.3315   81.0559   -0.5426 O   0  0  0  0  0  0  0  0  0  0  0  0
  126.8067   77.9294   -6.7552 H   0  0  0  0  0  0  0  0  0  0  0  0
  126.8672   80.9841   -2.6764 H   0  0  0  0  0  0  0  0  0  0  0  0
  127.9369   81.6042   -3.9638 H   0  0  0  0  0  0  0  0  0  0  0  0
  129.7892   81.3026   -2.7188 H   0  0  0  0  0  0  0  0  0  0  0  0
  129.3986   79.5808   -2.4068 H   0  0  0  0  0  0  0  0  0  0  0  0
  127.0800   81.0098    0.4376 H   0  0  0  0  0  0  0  0  0  0  0  0
  1  2  2  0
  1  3  1  0
  1  4  1  0
  4  5  2  0
  4  6  1  0
  6  7  1  0
  7  8  1  0
  8  9  2  0
  8 10  1  0
  3 11  1  0
  6 12  1  1
  6 13  1  0
  7 14  1  6
  7 15  1  0
 10 16  1  0
M  END
