7D0P_1VU_A_701
     RDKit          3D

 52 54  0  0  0  0  0  0  0  0999 V2000
  196.5451    8.2169   95.1963 O   0  0  0  0  0  0  0  0  0  0  0  0
  195.6694    7.6693   96.2985 P   0  0  2  0  0  0  0  0  0  0  0  0
  194.0290    7.7504   95.8634 O   0  0  0  0  0  0  0  0  0  0  0  0
  195.8760    8.6846   97.6383 O   0  0  0  0  0  0  0  0  0  0  0  0
  196.1365    6.1134   96.7374 O   0  0  0  0  0  0  0  0  0  0  0  0
  195.8253    5.1718   95.7548 C   0  0  1  0  0  0  0  0  0  0  0  0
  197.1287    4.8215   95.0683 C   0  0  1  0  0  0  0  0  0  0  0  0
  197.9844    5.9244   95.0447 O   0  0  0  0  0  0  0  0  0  0  0  0
  197.6310    3.7501   96.0120 C   0  0  2  0  0  0  0  0  0  0  0  0
  198.7510    3.0151   95.5093 N   0  0  0  0  0  0  0  0  0  0  0  0
  199.9330    2.7638   96.0970 C   0  0  0  0  0  0  0  0  0  0  0  0
  200.4494    3.0892   97.2897 N   0  0  0  0  0  0  0  0  0  0  0  0
  201.6895    2.7185   97.6799 C   0  0  0  0  0  0  0  0  0  0  0  0
  202.4687    1.9832   96.8476 N   0  0  0  0  0  0  0  0  0  0  0  0
  202.0135    1.6141   95.6206 C   0  0  0  0  0  0  0  0  0  0  0  0
  202.8174    0.8388   94.7261 N   0  0  0  0  0  0  0  0  0  0  0  0
  200.7327    2.0059   95.2338 C   0  0  0  0  0  0  0  0  0  0  0  0
  199.9826    1.8300   94.1449 N   0  0  0  0  0  0  0  0  0  0  0  0
  198.7893    2.4337   94.3021 C   0  0  0  0  0  0  0  0  0  0  0  0
  196.4915    2.9601   96.1684 O   0  0  0  0  0  0  0  0  0  0  0  0
  195.4363    3.8429   96.3468 C   0  0  2  0  0  0  0  0  0  0  0  0
  194.2411    3.3005   95.6012 C   0  0  0  0  0  0  0  0  0  0  0  0
  194.2442    3.6871   94.2645 O   0  0  0  0  0  0  0  0  0  0  0  0
  193.9118    2.3807   93.2665 P   0  0  1  0  0  0  0  0  0  0  0  0
  192.2790    1.9378   93.2919 O   0  0  0  0  0  0  0  0  0  0  0  0
  194.1772    2.8695   91.8368 O   0  0  0  0  0  0  0  0  0  0  0  0
  194.9579    1.1128   93.5330 O   0  0  0  0  0  0  0  0  0  0  0  0
  195.9111    0.6819   92.2381 P   0  0  1  0  0  0  0  0  0  0  0  0
  194.9899    0.1488   91.1548 O   0  0  0  0  0  0  0  0  0  0  0  0
  196.6701    2.0616   91.6315 O   0  0  0  0  0  0  0  0  0  0  0  0
  197.0284   -0.5449   92.5852 O   0  0  0  0  0  0  0  0  0  0  0  0
  197.2779   -0.4914   93.9296 C   0  0  0  0  0  0  0  0  0  0  0  0
  198.2375   -1.5110   94.4666 C   0  0  1  0  0  0  0  0  0  0  0  0
  197.5574   -2.8720   94.2714 C   0  0  0  0  0  0  0  0  0  0  0  0
  199.5430   -1.5200   93.7160 C   0  0  0  0  0  0  0  0  0  0  0  0
  198.4668   -1.3800   95.9471 C   0  0  1  0  0  0  0  0  0  0  0  0
  197.2713   -1.4627   96.6584 O   0  0  0  0  0  0  0  0  0  0  0  0
  199.3421   -2.5603   96.3609 C   0  0  0  0  0  0  0  0  0  0  0  0
  199.7880   -3.2070   95.3958 O   0  0  0  0  0  0  0  0  0  0  0  0
  199.5740   -2.8280   97.7025 N   0  0  0  0  0  0  0  0  0  0  0  0
  199.2150   -3.8580   98.5996 C   0  0  0  0  0  0  0  0  0  0  0  0
  199.0255   -3.5630  100.0224 C   0  0  0  0  0  0  0  0  0  0  0  0
  200.2111   -3.4427  100.8387 C   0  0  0  0  0  0  0  0  0  0  0  0
  201.4102   -3.5661  100.5412 O   0  0  0  0  0  0  0  0  0  0  0  0
  199.9941   -3.1224  102.2637 N   0  0  0  0  0  0  0  0  0  0  0  0
  201.0711   -3.4451  103.1217 C   0  0  0  0  0  0  0  0  0  0  0  0
  201.3671   -4.8881  103.2446 C   0  0  0  0  0  0  0  0  0  0  0  0
  199.9764   -5.9049  103.6580 S   0  0  0  0  0  0  0  0  0  0  0  0
  200.2924   -7.6301  103.5994 C   0  0  0  0  0  0  0  0  0  0  0  0
  201.2825   -8.0437  104.2400 O   0  0  0  0  0  0  0  0  0  0  0  0
  199.5281   -8.6629  102.8855 C   0  0  0  0  0  0  0  0  0  0  0  0
  199.0289   -9.7487  103.8237 C   0  0  0  0  0  0  0  0  0  0  0  0
  1  2  2  0
  2  3  1  6
  2  4  1  0
  2  5  1  0
  6  5  1  1
  6  7  1  0
  7  8  1  1
  7  9  1  0
  9 10  1  6
 10 11  1  0
 11 12  2  0
 12 13  1  0
 13 14  2  0
 14 15  1  0
 15 16  1  0
 11 17  1  0
 15 17  2  0
 17 18  1  0
 18 19  2  0
 10 19  1  0
  9 20  1  0
  6 21  1  0
 20 21  1  0
 21 22  1  6
 22 23  1  0
 23 24  1  0
 24 25  1  6
 24 26  2  0
 24 27  1  0
 27 28  1  0
 28 29  2  0
 28 30  1  6
 28 31  1  0
 31 32  1  0
 32 33  1  0
 33 34  1  1
 33 35  1  0
 33 36  1  0
 36 37  1  1
 36 38  1  0
 38 39  2  0
 38 40  1  0
 40 41  1  0
 41 42  1  0
 42 43  1  0
 43 44  2  0
 43 45  1  0
 45 46  1  0
 46 47  1  0
 47 48  1  0
 48 49  1  0
 49 50  2  0
 49 51  1  0
 51 52  1  0
M  END
$$$$
