1MMV_3AR_A_1785
     RDKit          3D

 15 14  0  0  0  0  0  0  0  0999 V2000
   14.5936   -0.8666   38.3103 N   0  0  0  0  0  0  0  0  0  0  0  0
   13.7948   -2.0711   38.0720 C   0  0  2  0  0  0  0  0  0  0  0  0
   12.4722   -1.7180   37.4023 C   0  0  0  0  0  0  0  0  0  0  0  0
   12.0201   -2.3797   36.4629 O   0  0  0  0  0  0  0  0  0  0  0  0
   13.5566   -2.7920   39.4279 C   0  0  0  0  0  0  0  0  0  0  0  0
   14.6970   -3.7475   39.8831 C   0  0  0  0  0  0  0  0  0  0  0  0
   15.1817   -3.5009   41.3223 C   0  0  0  0  0  0  0  0  0  0  0  0
   14.1372   -2.7674   42.1029 N   0  0  0  0  0  0  0  0  0  0  0  0
   13.4723   -3.2432   43.1569 C   0  0  0  0  0  0  0  0  0  0  0  0
   13.8672   -4.2848   43.8711 N   0  0  0  0  0  0  0  0  0  0  0  0
   12.3724   -2.6226   43.4819 N   0  0  0  0  0  0  0  0  0  0  0  0
   13.7165   -5.6462   43.3047 C   0  0  0  0  0  0  0  0  0  0  0  0
   14.9803   -6.0133   42.4909 C   0  0  0  0  0  0  0  0  0  0  0  0
   15.4173   -4.8192   41.6286 C   0  0  0  0  0  0  0  0  0  0  0  0
   11.8785   -0.7221   37.8485 O   0  0  0  0  0  0  0  0  0  0  0  0
  2  1  1  1
  2  3  1  0
  3  4  2  0
  2  5  1  0
  5  6  1  0
  6  7  1  0
  7  8  1  0
  8  9  1  0
  9 10  1  0
  9 11  2  0
 10 12  1  0
 12 13  1  0
 13 14  1  0
  3 15  1  0
M  CHG  1  11   1
M  END
