7M6K_YRJ_B_701
     RDKit          3D

 33 35  0  0  0  0  0  0  0  0999 V2000
   24.1319    1.4529  -14.2788 C   0  0  0  0  0  0  0  0  0  0  0  0
   24.8520   -0.3832  -15.5778 C   0  0  0  0  0  0  0  0  0  0  0  0
   27.2682   -1.0861  -15.3991 C   0  0  0  0  0  0  0  0  0  0  0  0
   29.7410   -1.1275  -14.8570 C   0  0  0  0  0  0  0  0  0  0  0  0
   33.2599   -0.9174  -13.6352 C   0  0  0  0  0  0  0  0  0  0  0  0
   34.5540   -2.4579  -14.9188 C   0  0  0  0  0  0  0  0  0  0  0  0
   23.9131    3.5634  -11.3147 C   0  0  1  0  0  0  0  0  0  0  0  0
   24.3894    3.7122  -12.7725 C   0  0  2  0  0  0  0  0  0  0  0  0
   25.4923    2.7212  -12.8051 C   0  0  2  0  0  0  0  0  0  0  0  0
   25.2889    3.3172  -10.6800 C   0  0  1  0  0  0  0  0  0  0  0  0
   25.2139    2.9194   -9.2485 C   0  0  0  0  0  0  0  0  0  0  0  0
   23.8578    0.4755  -15.1772 C   0  0  0  0  0  0  0  0  0  0  0  0
   26.1134   -0.2244  -15.0483 C   0  0  0  0  0  0  0  0  0  0  0  0
   26.3215    0.8088  -14.1242 C   0  0  0  0  0  0  0  0  0  0  0  0
   32.1076   -1.2904  -14.2723 C   0  0  0  0  0  0  0  0  0  0  0  0
   34.4615   -1.4913  -13.9528 C   0  0  0  0  0  0  0  0  0  0  0  0
   33.4196   -2.8606  -15.5827 C   0  0  0  0  0  0  0  0  0  0  0  0
   32.2214   -2.2756  -15.2525 C   0  0  0  0  0  0  0  0  0  0  0  0
   25.3741    1.6425  -13.7302 N   0  0  0  0  0  0  0  0  0  0  0  0
   28.4303   -0.6807  -14.6444 N   0  0  0  0  0  0  0  0  0  0  0  0
   30.8251   -0.7383  -13.9953 N   0  0  0  0  0  0  0  0  0  0  0  0
   35.8180   -3.0604  -15.2502 N   0  0  0  0  0  0  0  0  0  0  0  0
   23.3316    4.7130  -10.8355 O   0  0  0  0  0  0  0  0  0  0  0  0
   24.9009    5.0359  -12.8182 O   0  0  0  0  0  0  0  0  0  0  0  0
   25.7323    2.2809  -11.4982 O   0  0  0  0  0  0  0  0  0  0  0  0
   24.3866    1.8359   -9.0756 O   0  0  0  0  0  0  0  0  0  0  0  0
   25.1508   -0.8309   -9.5496 O   0  0  0  0  0  0  0  0  0  0  0  0
   24.4818    0.0235   -7.2262 O   0  0  0  0  0  0  0  0  0  0  0  0
   26.7992    0.8336   -8.0785 O   0  0  0  0  0  0  0  0  0  0  0  0
   30.0509   -1.8890  -15.8047 O   0  0  0  0  0  0  0  0  0  0  0  0
   36.9583   -2.6050  -14.6344 O   0  0  0  0  0  0  0  0  0  0  0  0
   35.9245   -3.9728  -16.0657 O   0  0  0  0  0  0  0  0  0  0  0  0
   25.1985    0.4619   -8.4978 P   0  0  2  0  0  0  0  0  0  0  0  0
  7  8  1  0
  8  9  1  0
  7 10  1  0
 10 11  1  1
  1 12  2  0
  2 12  1  0
  3 13  1  0
  2 13  2  0
 13 14  1  0
  5 15  2  0
  6 16  2  0
  5 16  1  0
  6 17  1  0
 17 18  2  0
 15 18  1  0
  9 19  1  6
 14 19  2  0
  1 19  1  0
  4 20  1  0
  3 20  1  0
 15 21  1  0
  4 21  1  0
  6 22  1  0
  7 23  1  1
  8 24  1  1
 10 25  1  0
  9 25  1  0
 11 26  1  0
  4 30  2  0
 22 31  1  0
 22 32  2  0
 26 33  1  0
 28 33  2  0
 33 27  1  6
 29 33  1  0
M  CHG  3  19   1  22   1  31  -1
M  END
$$$$
