5SB2_1K2_A_1006
     RDKit          3D

 30 34  0  0  0  0  0  0  0  0999 V2000
  -26.6888    5.9006   -3.8446 C   0  0  0  0  0  0  0  0  0  0  0  0
  -24.5923    1.8087   -2.1222 C   0  0  0  0  0  0  0  0  0  0  0  0
  -23.8219    2.6336   -2.6286 O   0  0  0  0  0  0  0  0  0  0  0  0
  -24.0701    0.4878   -1.7158 C   0  0  0  0  0  0  0  0  0  0  0  0
  -24.5177   -1.8201   -1.1162 C   0  0  0  0  0  0  0  0  0  0  0  0
  -23.1607   -2.0067   -0.9464 C   0  0  0  0  0  0  0  0  0  0  0  0
  -22.2471   -1.0000   -1.1456 C   0  0  0  0  0  0  0  0  0  0  0  0
  -20.7847   -1.1479   -0.9836 C   0  0  0  0  0  0  0  0  0  0  0  0
  -18.9410   -2.5347   -1.9992 C   0  0  0  0  0  0  0  0  0  0  0  0
  -17.7811   -2.3002   -1.3047 C   0  0  0  0  0  0  0  0  0  0  0  0
  -16.5555   -2.8428   -1.6486 C   0  0  0  0  0  0  0  0  0  0  0  0
  -16.4865   -3.6700   -2.7538 C   0  0  0  0  0  0  0  0  0  0  0  0
  -14.4569   -3.5348   -1.9224 C   0  0  0  0  0  0  0  0  0  0  0  0
  -15.2733   -2.7471   -1.1087 C   0  0  0  0  0  0  0  0  0  0  0  0
  -18.7901   -3.3899   -3.1171 C   0  0  0  0  0  0  0  0  0  0  0  0
  -25.9603    2.1294   -1.9387 N   0  0  0  0  0  0  0  0  0  0  0  0
  -26.5778    3.3370   -2.4810 C   0  0  1  0  0  0  0  0  0  0  0  0
  -26.6871    3.4610   -3.9646 C   0  0  1  0  0  0  0  0  0  0  0  0
  -27.9101    3.2797   -3.0930 C   0  0  0  0  0  0  0  0  0  0  0  0
  -26.5665    4.7730   -4.6008 C   0  0  0  0  0  0  0  0  0  0  0  0
  -26.3170    4.8837   -5.9686 C   0  0  0  0  0  0  0  0  0  0  0  0
  -26.1851    6.1009   -6.6056 C   0  0  0  0  0  0  0  0  0  0  0  0
  -26.3161    7.2283   -5.8061 C   0  0  0  0  0  0  0  0  0  0  0  0
  -26.5635    7.1442   -4.4495 C   0  0  0  0  0  0  0  0  0  0  0  0
  -24.9508   -0.5589   -1.5032 C   0  0  0  0  0  0  0  0  0  0  0  0
  -20.1665   -2.0703   -1.7595 O   0  0  0  0  0  0  0  0  0  0  0  0
  -15.2075   -4.0709   -2.8927 N   0  0  0  0  0  0  0  0  0  0  0  0
  -17.6113   -3.9089   -3.4430 N   0  0  0  0  0  0  0  0  0  0  0  0
  -22.7263    0.2483   -1.5318 C   0  0  0  0  0  0  0  0  0  0  0  0
  -25.6857   -3.1010   -0.8610 Cl  0  0  0  0  0  0  0  0  0  0  0  0
  2  3  2  0
  2  4  1  0
  5  6  2  0
  6  7  1  0
  7  8  1  0
  9 10  2  0
 10 11  1  0
 11 12  2  0
 11 14  1  0
 13 14  2  0
  9 15  1  0
  2 16  1  0
 17 16  1  6
 17 18  1  0
 17 19  1  0
 18 19  1  0
 18 20  1  1
  1 20  2  0
 20 21  1  0
 21 22  2  0
 22 23  1  0
 23 24  2  0
  1 24  1  0
  4 25  2  0
  5 25  1  0
  8 26  1  0
  9 26  1  0
 12 27  1  0
 13 27  1  0
 12 28  1  0
 15 28  2  0
  4 29  1  0
  7 29  2  0
  5 30  1  0
M  END
$$$$
