7WQQ_5Z6_A_501
     RDKit          3D

 55 56  0  0  0  0  0  0  0  0999 V2000
   27.3398   -4.1216   11.1334 C   0  0  0  0  0  0  0  0  0  0  0  0
   29.7582   -2.8106   12.3632 C   0  0  0  0  0  0  0  0  0  0  0  0
   30.5671   -0.8563   13.5678 C   0  0  0  0  0  0  0  0  0  0  0  0
   28.1782   -1.2631   13.3464 C   0  0  0  0  0  0  0  0  0  0  0  0
   27.3741   -6.4712    9.1484 C   0  0  0  0  0  0  0  0  0  0  0  0
   27.4420   -7.2852    8.0003 C   0  0  0  0  0  0  0  0  0  0  0  0
   28.7075   -8.8299    6.3571 C   0  0  1  0  0  0  0  0  0  0  0  0
   29.0091   -9.0837    8.8211 C   0  0  1  0  0  0  0  0  0  0  0  0
   24.0198   -7.6152    5.3364 C   0  0  2  0  0  0  0  0  0  0  0  0
   23.8385   -6.7394    6.6002 C   0  0  2  0  0  0  0  0  0  0  0  0
   22.6765   -7.3425    7.4203 C   0  0  1  0  0  0  0  0  0  0  0  0
   23.4518   -5.3195    6.1307 C   0  0  1  0  0  0  0  0  0  0  0  0
   25.1064   -6.6631    7.4813 C   0  0  0  0  0  0  0  0  0  0  0  0
   25.0938   -5.8582    8.6378 C   0  0  0  0  0  0  0  0  0  0  0  0
   26.2172   -5.7472    9.4665 C   0  0  0  0  0  0  0  0  0  0  0  0
   26.1587   -4.8902   10.6777 C   0  0  0  0  0  0  0  0  0  0  0  0
   27.2675   -3.2273   12.1299 C   0  0  0  0  0  0  0  0  0  0  0  0
   28.4242   -2.4268   12.6015 C   0  0  0  0  0  0  0  0  0  0  0  0
   30.8164   -2.0299   12.8380 C   0  0  0  0  0  0  0  0  0  0  0  0
   31.6908   -0.0336   14.0674 C   0  0  0  0  0  0  0  0  0  0  0  0
   29.2363   -0.4824   13.8202 C   0  0  0  0  0  0  0  0  0  0  0  0
   28.7472   -8.0565    7.6979 C   0  0  2  0  0  0  0  0  0  0  0  0
   29.9288   -7.0636    7.6253 C   0  0  2  0  0  0  0  0  0  0  0  0
   26.2947   -7.3676    7.1770 C   0  0  0  0  0  0  0  0  0  0  0  0
   25.0727   -4.8000   11.3145 O   0  0  0  0  0  0  0  0  0  0  0  0
   32.2281   -0.2932   15.1782 O   0  0  0  0  0  0  0  0  0  0  0  0
   32.1660    1.0371   13.3143 O   0  0  0  0  0  0  0  0  0  0  0  0
   28.2723   -4.2667   10.6074 H   0  0  0  0  0  0  0  0  0  0  0  0
   29.9948   -3.7231   11.8337 H   0  0  0  0  0  0  0  0  0  0  0  0
   27.1619   -0.9511   13.5554 H   0  0  0  0  0  0  0  0  0  0  0  0
   28.2232   -6.4194    9.8144 H   0  0  0  0  0  0  0  0  0  0  0  0
   29.2209   -9.8115    6.4526 H   0  0  0  0  0  0  0  0  0  0  0  0
   27.6598   -9.0348    6.0471 H   0  0  0  0  0  0  0  0  0  0  0  0
   29.2259   -8.2602    5.5556 H   0  0  0  0  0  0  0  0  0  0  0  0
   29.7260   -9.8634    8.4834 H   0  0  0  0  0  0  0  0  0  0  0  0
   29.4430   -8.6036    9.7228 H   0  0  0  0  0  0  0  0  0  0  0  0
   28.0611   -9.5844    9.1147 H   0  0  0  0  0  0  0  0  0  0  0  0
   23.4867   -8.5845    5.4484 H   0  0  0  0  0  0  0  0  0  0  0  0
   25.0935   -7.8455    5.1640 H   0  0  0  0  0  0  0  0  0  0  0  0
   23.6012   -7.1094    4.4394 H   0  0  0  0  0  0  0  0  0  0  0  0
   21.8122   -7.5820    6.7634 H   0  0  0  0  0  0  0  0  0  0  0  0
   23.0038   -8.2788    7.9221 H   0  0  0  0  0  0  0  0  0  0  0  0
   22.3141   -6.6386    8.1982 H   0  0  0  0  0  0  0  0  0  0  0  0
   24.2685   -4.8801    5.5179 H   0  0  0  0  0  0  0  0  0  0  0  0
   22.5274   -5.3460    5.5136 H   0  0  0  0  0  0  0  0  0  0  0  0
   23.2571   -4.6426    6.9883 H   0  0  0  0  0  0  0  0  0  0  0  0
   24.2043   -5.2986    8.8941 H   0  0  0  0  0  0  0  0  0  0  0  0
   26.3096   -3.0422   12.6022 H   0  0  0  0  0  0  0  0  0  0  0  0
   31.8310   -2.3515   12.6387 H   0  0  0  0  0  0  0  0  0  0  0  0
   29.0111    0.4137   14.3850 H   0  0  0  0  0  0  0  0  0  0  0  0
   30.3891   -6.8979    8.6215 H   0  0  0  0  0  0  0  0  0  0  0  0
   29.5846   -6.0825    7.2323 H   0  0  0  0  0  0  0  0  0  0  0  0
   30.7271   -7.4481    6.9538 H   0  0  0  0  0  0  0  0  0  0  0  0
   26.3255   -7.9846    6.2993 H   0  0  0  0  0  0  0  0  0  0  0  0
   31.7860    1.2372   12.3968 H   0  0  0  0  0  0  0  0  0  0  0  0
  5  6  2  0
  9 10  1  0
 10 11  1  0
 10 12  1  0
 10 13  1  1
 13 14  1  0
  5 15  1  0
 14 15  2  0
 15 16  1  0
  1 16  1  0
  1 17  2  0
 17 18  1  0
  4 18  1  0
  2 18  2  0
  2 19  1  0
  3 19  2  0
  3 20  1  0
  4 21  2  0
  3 21  1  0
  7 22  1  0
  8 22  1  0
 22  6  1  1
 22 23  1  0
  6 24  1  0
 13 24  2  0
 16 25  2  0
 20 26  2  0
 20 27  1  0
  1 28  1  0
  2 29  1  0
  4 30  1  0
  5 31  1  0
  7 32  1  1
  7 33  1  0
  7 34  1  0
  8 35  1  6
  8 36  1  0
  8 37  1  0
  9 38  1  1
  9 39  1  0
  9 40  1  0
 11 41  1  6
 11 42  1  0
 11 43  1  0
 12 44  1  6
 12 45  1  0
 12 46  1  0
 14 47  1  0
 17 48  1  0
 19 49  1  0
 21 50  1  0
 23 51  1  1
 23 52  1  0
 23 53  1  0
 24 54  1  0
 27 55  1  0
M  END
