7UMW_NAD_B_301
     RDKit          3D

 71 75  0  0  0  0  0  0  0  0999 V2000
  -35.7999   37.4242  -20.5456 P   0  0  1  0  0  5  0  0  0  0  0  0
  -36.0716   36.4558  -21.6758 O   0  0  0  0  0  0  0  0  0  0  0  0
  -34.6728   38.5815  -21.0500 O   0  0  0  0  0  0  0  0  0  0  0  0
  -37.2568   38.2005  -20.1171 O   0  0  0  0  0  0  0  0  0  0  0  0
  -37.1847   38.5565  -18.7555 C   0  0  1  0  0  0  0  0  0  0  0  0
  -35.9352   37.9286  -18.1318 C   0  0  1  0  0  0  0  0  0  0  0  0
  -34.9198   38.8983  -17.9777 O   0  0  0  0  0  0  0  0  0  0  0  0
  -36.2345   37.3149  -16.7696 C   0  0  1  0  0  0  0  0  0  0  0  0
  -36.6422   35.9778  -16.8971 O   0  0  0  0  0  0  0  0  0  0  0  0
  -34.9122   37.4490  -16.0559 C   0  0  1  0  0  0  0  0  0  0  0  0
  -34.1055   36.3043  -16.2066 O   0  0  0  0  0  0  0  0  0  0  0  0
  -34.2811   38.6697  -16.7353 C   0  0  2  0  0  0  0  0  0  0  0  0
  -34.4135   39.8549  -15.8829 N   0  0  0  0  0  0  0  0  0  0  0  0
  -35.5022   40.6499  -15.7031 C   0  0  0  0  0  0  0  0  0  0  0  0
  -35.3267   41.5995  -14.7425 N   0  0  0  0  0  0  0  0  0  0  0  0
  -34.0724   41.3604  -14.3144 C   0  0  0  0  0  0  0  0  0  0  0  0
  -33.3602   41.9626  -13.2823 C   0  0  0  0  0  0  0  0  0  0  0  0
  -33.8953   43.0523  -12.5317 N   0  0  0  0  0  0  0  0  0  0  0  0
  -32.1230   41.4592  -12.9870 N   0  0  0  0  0  0  0  0  0  0  0  0
  -31.5990   40.3971  -13.6801 C   0  0  0  0  0  0  0  0  0  0  0  0
  -32.3105   39.8090  -14.6882 N   0  0  0  0  0  0  0  0  0  0  0  0
  -33.5318   40.3187  -14.9873 C   0  0  0  0  0  0  0  0  0  0  0  0
  -35.2063   36.6013  -19.1756 O   0  0  0  0  0  0  0  0  0  0  0  0
  -34.3219   35.2545  -19.7259 P   0  0  2  0  0  5  0  0  0  0  0  0
  -33.5305   35.6632  -20.9481 O   0  0  0  0  0  0  0  0  0  0  0  0
  -35.3750   33.9959  -20.1471 O   0  0  0  0  0  1  0  0  0  0  0  0
  -33.2556   34.7444  -18.4972 O   0  0  0  0  0  0  0  0  0  0  0  0
  -33.0694   33.3515  -18.5892 C   0  0  2  0  0  0  0  0  0  0  0  0
  -32.7823   32.7813  -17.1941 C   0  0  1  0  0  0  0  0  0  0  0  0
  -32.1781   33.7610  -16.3822 O   0  0  0  0  0  0  0  0  0  0  0  0
  -34.0492   32.3056  -16.4918 C   0  0  1  0  0  0  0  0  0  0  0  0
  -34.3580   30.9758  -16.8237 O   0  0  0  0  0  0  0  0  0  0  0  0
  -33.6941   32.4559  -15.0308 C   0  0  1  0  0  0  0  0  0  0  0  0
  -33.2049   31.2514  -14.4956 O   0  0  0  0  0  0  0  0  0  0  0  0
  -32.5727   33.5037  -15.0468 C   0  0  2  0  0  0  0  0  0  0  0  0
  -33.0180   34.7457  -14.3857 N   0  0  0  0  0  4  0  0  0  0  0  0
  -33.1502   34.7608  -13.0217 C   0  0  0  0  0  0  0  0  0  0  0  0
  -33.6353   35.8973  -12.3506 C   0  0  0  0  0  0  0  0  0  0  0  0
  -33.7700   35.8909  -10.8707 C   0  0  0  0  0  0  0  0  0  0  0  0
  -33.2551   36.8217  -10.1919 O   0  0  0  0  0  0  0  0  0  0  0  0
  -34.4577   34.8411  -10.1852 N   0  0  0  0  0  0  0  0  0  0  0  0
  -33.9759   37.0245  -13.1127 C   0  0  0  0  0  0  0  0  0  0  0  0
  -33.8547   36.9927  -14.5006 C   0  0  0  0  0  0  0  0  0  0  0  0
  -33.3856   35.8385  -15.1247 C   0  0  0  0  0  0  0  0  0  0  0  0
  -34.6180   39.2242  -20.2980 H   0  0  0  0  0  0  0  0  0  0  0  0
  -37.1288   39.6629  -18.6466 H   0  0  0  0  0  0  0  0  0  0  0  0
  -38.0680   38.1734  -18.1956 H   0  0  0  0  0  0  0  0  0  0  0  0
  -35.5591   37.1387  -18.8234 H   0  0  0  0  0  0  0  0  0  0  0  0
  -37.0106   37.9122  -16.2324 H   0  0  0  0  0  0  0  0  0  0  0  0
  -36.0607   35.4492  -16.2902 H   0  0  0  0  0  0  0  0  0  0  0  0
  -35.0803   37.6140  -14.9698 H   0  0  0  0  0  0  0  0  0  0  0  0
  -34.6995   35.5129  -16.2843 H   0  0  0  0  0  0  0  0  0  0  0  0
  -33.2000   38.4894  -16.9234 H   0  0  0  0  0  0  0  0  0  0  0  0
  -36.4284   40.5338  -16.2506 H   0  0  0  0  0  0  0  0  0  0  0  0
  -34.7808   43.5237  -12.8234 H   0  0  0  0  0  0  0  0  0  0  0  0
  -33.3859   43.4027  -11.6923 H   0  0  0  0  0  0  0  0  0  0  0  0
  -30.6217   40.0144  -13.4187 H   0  0  0  0  0  0  0  0  0  0  0  0
  -32.2000   33.1341  -19.2483 H   0  0  0  0  0  0  0  0  0  0  0  0
  -33.9635   32.8284  -18.9968 H   0  0  0  0  0  0  0  0  0  0  0  0
  -32.0724   31.9301  -17.3002 H   0  0  0  0  0  0  0  0  0  0  0  0
  -34.9128   32.9761  -16.7142 H   0  0  0  0  0  0  0  0  0  0  0  0
  -34.5803   30.9689  -17.7910 H   0  0  0  0  0  0  0  0  0  0  0  0
  -34.5768   32.8113  -14.4453 H   0  0  0  0  0  0  0  0  0  0  0  0
  -32.3048   31.1082  -14.8856 H   0  0  0  0  0  0  0  0  0  0  0  0
  -31.6775   33.1061  -14.5141 H   0  0  0  0  0  0  0  0  0  0  0  0
  -32.8996   33.8763  -12.4478 H   0  0  0  0  0  0  0  0  0  0  0  0
  -35.4283   34.9990   -9.8333 H   0  0  0  0  0  0  0  0  0  0  0  0
  -33.9898   33.9425   -9.9412 H   0  0  0  0  0  0  0  0  0  0  0  0
  -34.3192   37.9372  -12.6440 H   0  0  0  0  0  0  0  0  0  0  0  0
  -34.1233   37.8589  -15.0917 H   0  0  0  0  0  0  0  0  0  0  0  0
  -33.3188   35.8308  -16.2037 H   0  0  0  0  0  0  0  0  0  0  0  0
  1  2  2  0
  1  3  1  6
  1  4  1  0
  4  5  1  0
  6  5  1  0
  6  7  1  0
  6  8  1  0
  8  9  1  0
  8 10  1  0
 10 11  1  0
  7 12  1  0
 10 12  1  0
 12 13  1  0
 13 14  1  0
 14 15  2  0
 15 16  1  0
 16 17  2  0
 17 18  1  0
 17 19  1  0
 19 20  2  0
 20 21  1  0
 13 22  1  0
 16 22  1  0
 21 22  2  0
  1 23  1  0
 23 24  1  0
 24 25  2  0
 24 26  1  6
 24 27  1  0
 27 28  1  0
 29 28  1  0
 29 30  1  0
 29 31  1  0
 31 32  1  0
 31 33  1  0
 33 34  1  0
 30 35  1  0
 33 35  1  0
 35 36  1  0
 36 37  2  0
 37 38  1  0
 38 39  1  0
 39 40  2  0
 39 41  1  0
 38 42  2  0
 42 43  1  0
 36 44  1  0
 43 44  2  0
  3 45  1  0
  5 46  1  6
  5 47  1  0
  6 48  1  6
  8 49  1  1
  9 50  1  0
 10 51  1  1
 11 52  1  0
 12 53  1  6
 14 54  1  0
 18 55  1  0
 18 56  1  0
 20 57  1  0
 28 58  1  6
 28 59  1  0
 29 60  1  6
 31 61  1  6
 32 62  1  0
 33 63  1  1
 34 64  1  0
 35 65  1  1
 37 66  1  0
 41 67  1  0
 41 68  1  0
 42 69  1  0
 43 70  1  0
 44 71  1  0
M  CHG  2  26  -1  36   1
M  END
