6Y7L_QMG_A_301
     RDKit          3D

 25 28  0  0  0  0  0  0  0  0999 V2000
  124.4197   -4.9051   41.1381 C   0  0  0  0  0  0  0  0  0  0  0  0
  127.1526   -5.8141   35.5432 C   0  0  0  0  0  0  0  0  0  0  0  0
  128.4284   -3.9018   34.7844 C   0  0  0  0  0  0  0  0  0  0  0  0
  131.8237   -1.0933   37.0216 C   0  0  0  0  0  0  0  0  0  0  0  0
  131.7367    0.2923   37.0757 C   0  0  0  0  0  0  0  0  0  0  0  0
  127.6557    1.8186   36.0430 C   0  0  0  0  0  0  0  0  0  0  0  0
  128.1692    0.4519   36.1069 C   0  0  0  0  0  0  0  0  0  0  0  0
  127.4445   -0.7158   35.8427 C   0  0  0  0  0  0  0  0  0  0  0  0
  128.3464   -1.7595   36.0312 C   0  0  0  0  0  0  0  0  0  0  0  0
  127.9502   -3.1523   35.8444 C   0  0  0  0  0  0  0  0  0  0  0  0
  127.0863   -3.7778   36.7121 C   0  0  0  0  0  0  0  0  0  0  0  0
  126.6697   -5.0695   36.6070 C   0  0  0  0  0  0  0  0  0  0  0  0
  125.7478   -5.6134   37.5985 C   0  0  0  0  0  0  0  0  0  0  0  0
  124.5384   -5.5339   39.7973 C   0  0  1  0  0  0  0  0  0  0  0  0
  123.2771   -4.8663   40.1728 C   0  0  0  0  0  0  0  0  0  0  0  0
  128.0225   -5.2215   34.6497 C   0  0  0  0  0  0  0  0  0  0  0  0
  129.3649   -3.3160   33.7948 C   0  0  0  0  0  0  0  0  0  0  0  0
  129.5723   -1.2392   36.3964 C   0  0  0  0  0  0  0  0  0  0  0  0
  130.5114    0.8827   36.7730 C   0  0  0  0  0  0  0  0  0  0  0  0
  126.1808    2.0310   35.8614 C   0  0  0  0  0  0  0  0  0  0  0  0
  125.4398   -4.9720   38.8179 N   0  0  0  0  0  0  0  0  0  0  0  0
  130.7385   -1.8384   36.6823 N   0  0  0  0  0  0  0  0  0  0  0  0
  129.4324    0.1194   36.4344 N   0  0  0  0  0  0  0  0  0  0  0  0
  128.3914    2.8353   36.1331 O   0  0  0  0  0  0  0  0  0  0  0  0
  125.1642   -6.7318   37.3908 O   0  0  0  0  0  0  0  0  0  0  0  0
  4  5  1  0
  6  7  1  0
  7  8  2  0
  8  9  1  0
  9 10  1  0
  3 10  1  0
 10 11  2  0
 11 12  1  0
  2 12  2  0
 12 13  1  0
  1 14  1  0
 14 15  1  0
  1 15  1  0
  3 16  2  0
  2 16  1  0
  3 17  1  0
  9 18  2  0
  5 19  2  0
  6 20  1  0
 14 21  1  6
 13 21  1  0
  4 22  2  0
 18 22  1  0
 19 23  1  0
 18 23  1  0
  7 23  1  0
  6 24  2  0
 13 25  2  0
M  END
$$$$
