7M3H_YPV_B_501
     RDKit          3D

 43 44  0  0  0  0  0  0  0  0999 V2000
  -13.4718   -8.7127   21.8600 C   0  0  0  0  0  0  0  0  0  0  0  0
  -14.8437   -8.4082   21.8822 C   0  0  0  0  0  0  0  0  0  0  0  0
  -15.4247   -7.6931   20.8330 C   0  0  0  0  0  0  0  0  0  0  0  0
  -10.9649   -8.4027   26.3917 C   0  0  0  0  0  0  0  0  0  0  0  0
   -9.4652   -7.5946   28.2149 C   0  0  0  0  0  0  0  0  0  0  0  0
   -9.6784   -8.0091   26.8045 C   0  0  0  0  0  0  0  0  0  0  0  0
   -8.6295   -8.0029   25.8554 C   0  0  0  0  0  0  0  0  0  0  0  0
   -8.8837   -8.3866   24.5310 C   0  0  0  0  0  0  0  0  0  0  0  0
  -10.1689   -8.7555   24.1338 C   0  0  0  0  0  0  0  0  0  0  0  0
  -11.2173   -8.7536   25.0584 C   0  0  0  0  0  0  0  0  0  0  0  0
  -14.6406   -7.2541   19.7551 C   0  0  0  0  0  0  0  0  0  0  0  0
  -15.2845   -6.5917   18.5641 C   0  0  2  0  0  0  0  0  0  0  0  0
  -14.7803   -5.1511   18.3620 C   0  0  2  0  0  0  0  0  0  0  0  0
  -13.9085   -4.9542   17.1079 C   0  0  2  0  0  0  0  0  0  0  0  0
  -14.6830   -4.3558   15.9351 C   0  0  2  0  0  0  0  0  0  0  0  0
  -13.2598   -7.5049   19.7630 C   0  0  0  0  0  0  0  0  0  0  0  0
  -12.6798   -8.2248   20.8109 C   0  0  0  0  0  0  0  0  0  0  0  0
  -12.8799   -9.5585   22.8584 N   0  0  0  0  0  0  0  0  0  0  0  0
   -8.8109   -6.3985   28.5002 O   0  0  0  0  0  0  0  0  0  0  0  0
   -7.3404   -7.6131   26.2183 O   0  0  0  0  0  0  0  0  0  0  0  0
  -13.7284   -7.9283   24.7627 O   0  0  0  0  0  0  0  0  0  0  0  0
  -13.4062  -10.2885   25.3387 O   0  0  0  0  0  0  0  0  0  0  0  0
   -9.8620   -8.3160   29.1690 O   0  0  0  0  0  0  0  0  0  0  0  0
  -12.8613   -9.1356   24.5427 S   0  0  2  0  0  6  0  0  0  0  0  0
  -15.4723   -8.7449   22.6956 H   0  0  0  0  0  0  0  0  0  0  0  0
  -16.4909   -7.5045   20.8506 H   0  0  0  0  0  0  0  0  0  0  0  0
  -11.7836   -8.4151   27.1000 H   0  0  0  0  0  0  0  0  0  0  0  0
   -8.0834   -8.3869   23.8019 H   0  0  0  0  0  0  0  0  0  0  0  0
  -10.3466   -9.0298   23.1019 H   0  0  0  0  0  0  0  0  0  0  0  0
  -16.3843   -6.5636   18.7220 H   0  0  0  0  0  0  0  0  0  0  0  0
  -15.1165   -7.1852   17.6401 H   0  0  0  0  0  0  0  0  0  0  0  0
  -14.1873   -4.8496   19.2525 H   0  0  0  0  0  0  0  0  0  0  0  0
  -15.6552   -4.4674   18.3124 H   0  0  0  0  0  0  0  0  0  0  0  0
  -13.4476   -5.9156   16.7974 H   0  0  0  0  0  0  0  0  0  0  0  0
  -13.0783   -4.2618   17.3657 H   0  0  0  0  0  0  0  0  0  0  0  0
  -15.6738   -3.9848   16.2734 H   0  0  0  0  0  0  0  0  0  0  0  0
  -14.8241   -5.1067   15.1314 H   0  0  0  0  0  0  0  0  0  0  0  0
  -14.1103   -3.5029   15.5131 H   0  0  0  0  0  0  0  0  0  0  0  0
  -12.6385   -7.1716   18.9410 H   0  0  0  0  0  0  0  0  0  0  0  0
  -11.6197   -8.4425   20.7818 H   0  0  0  0  0  0  0  0  0  0  0  0
  -12.6474  -10.5468   22.6128 H   0  0  0  0  0  0  0  0  0  0  0  0
   -7.8079   -6.3740   28.6413 H   0  0  0  0  0  0  0  0  0  0  0  0
   -7.1150   -6.6479   26.4301 H   0  0  0  0  0  0  0  0  0  0  0  0
  1  2  2  0
  2  3  1  0
  4  6  2  0
  5  6  1  0
  6  7  1  0
  7  8  2  0
  8  9  1  0
  4 10  1  0
  9 10  2  0
  3 11  2  0
 11 12  1  0
 12 13  1  0
 13 14  1  0
 14 15  1  0
 11 16  1  0
 16 17  2  0
  1 17  1  0
  1 18  1  0
  5 19  1  0
  7 20  1  0
  5 23  2  0
 21 24  2  0
 22 24  2  0
 24 18  1  6
 10 24  1  0
  2 25  1  0
  3 26  1  0
  4 27  1  0
  8 28  1  0
  9 29  1  0
 12 30  1  1
 12 31  1  0
 13 32  1  1
 13 33  1  0
 14 34  1  6
 14 35  1  0
 15 36  1  1
 15 37  1  0
 15 38  1  0
 16 39  1  0
 17 40  1  0
 18 41  1  0
 19 42  1  0
 20 43  1  0
M  END
