7UMW_NAD_B_301
     RDKit          3D

 44 48  0  0  0  0  0  0  0  0999 V2000
  -23.7951   24.5897   -7.6333 P   0  0  1  0  0  0  0  0  0  0  0  0
  -23.3550   24.5485   -9.0790 O   0  0  0  0  0  0  0  0  0  0  0  0
  -23.6151   23.0305   -6.9925 O   0  0  0  0  0  0  0  0  0  0  0  0
  -22.8174   25.7007   -6.8302 O   0  0  0  0  0  0  0  0  0  0  0  0
  -23.3072   26.9782   -6.8606 C   0  0  0  0  0  0  0  0  0  0  0  0
  -22.2732   28.0057   -7.2578 C   0  0  1  0  0  0  0  0  0  0  0  0
  -22.7776   29.3191   -7.1121 O   0  0  0  0  0  0  0  0  0  0  0  0
  -21.1146   28.0278   -6.2833 C   0  0  1  0  0  0  0  0  0  0  0  0
  -20.1368   27.1796   -6.8291 O   0  0  0  0  0  0  0  0  0  0  0  0
  -20.6669   29.4917   -6.3395 C   0  0  1  0  0  0  0  0  0  0  0  0
  -19.3393   29.4966   -6.7499 O   0  0  0  0  0  0  0  0  0  0  0  0
  -21.6007   30.0297   -7.4045 C   0  0  2  0  0  0  0  0  0  0  0  0
  -21.7497   31.4457   -7.3563 N   0  0  0  0  0  0  0  0  0  0  0  0
  -22.8023   32.1110   -6.8830 C   0  0  0  0  0  0  0  0  0  0  0  0
  -22.5365   33.4378   -7.0237 N   0  0  0  0  0  0  0  0  0  0  0  0
  -21.3318   33.6072   -7.5787 C   0  0  0  0  0  0  0  0  0  0  0  0
  -20.6084   34.7258   -7.9263 C   0  0  0  0  0  0  0  0  0  0  0  0
  -21.1325   36.0349   -7.7043 N   0  0  0  0  0  0  0  0  0  0  0  0
  -19.3829   34.5524   -8.4858 N   0  0  0  0  0  0  0  0  0  0  0  0
  -18.8774   33.3213   -8.7002 C   0  0  0  0  0  0  0  0  0  0  0  0
  -19.6145   32.2495   -8.3470 N   0  0  0  0  0  0  0  0  0  0  0  0
  -20.8367   32.3361   -7.7877 C   0  0  0  0  0  0  0  0  0  0  0  0
  -25.4254   25.0310   -7.6083 O   0  0  0  0  0  0  0  0  0  0  0  0
  -25.7679   25.8327   -9.0483 P   0  0  2  0  0  0  0  0  0  0  0  0
  -24.4982   26.1718   -9.8345 O   0  0  0  0  0  0  0  0  0  0  0  0
  -26.5837   27.2960   -8.7909 O   0  0  0  0  0  0  0  0  0  0  0  0
  -26.7153   24.9159  -10.1070 O   0  0  0  0  0  0  0  0  0  0  0  0
  -26.5146   23.5490   -9.9157 C   0  0  0  0  0  0  0  0  0  0  0  0
  -27.6486   22.7322  -10.5504 C   0  0  1  0  0  0  0  0  0  0  0  0
  -28.7347   22.8349   -9.6961 O   0  0  0  0  0  0  0  0  0  0  0  0
  -28.0233   23.4272  -11.8317 C   0  0  1  0  0  0  0  0  0  0  0  0
  -28.1730   22.4640  -12.8445 O   0  0  0  0  0  0  0  0  0  0  0  0
  -29.4030   23.9612  -11.5078 C   0  0  1  0  0  0  0  0  0  0  0  0
  -30.2252   23.9884  -12.6298 O   0  0  0  0  0  0  0  0  0  0  0  0
  -29.8699   22.9355  -10.4955 C   0  0  2  0  0  0  0  0  0  0  0  0
  -30.9875   23.4146   -9.7214 N   0  0  0  0  0  0  0  0  0  0  0  0
  -32.0579   22.6491   -9.4341 C   0  0  0  0  0  0  0  0  0  0  0  0
  -33.0742   23.1935   -8.6897 C   0  0  0  0  0  0  0  0  0  0  0  0
  -34.2269   22.3410   -8.3905 C   0  0  0  0  0  0  0  0  0  0  0  0
  -34.2500   21.1775   -8.8795 O   0  0  0  0  0  0  0  0  0  0  0  0
  -35.2711   22.8195   -7.5793 N   0  0  0  0  0  0  0  0  0  0  0  0
  -33.0285   24.4805   -8.2367 C   0  0  0  0  0  0  0  0  0  0  0  0
  -31.9225   25.2394   -8.5456 C   0  0  0  0  0  0  0  0  0  0  0  0
  -30.9153   24.6991   -9.2836 C   0  0  0  0  0  0  0  0  0  0  0  0
  1  2  2  0
  1  3  1  1
  1  4  1  0
  4  5  1  0
  6  5  1  1
  6  7  1  0
  6  8  1  0
  8  9  1  6
  8 10  1  0
 10 11  1  6
  7 12  1  0
 10 12  1  0
 12 13  1  1
 13 14  1  0
 14 15  2  0
 15 16  1  0
 16 17  2  0
 17 18  1  0
 17 19  1  0
 19 20  2  0
 20 21  1  0
 13 22  1  0
 16 22  1  0
 21 22  2  0
  1 23  1  0
 23 24  1  0
 24 25  2  0
 24 26  1  1
 24 27  1  0
 27 28  1  0
 29 28  1  1
 29 30  1  0
 29 31  1  0
 31 32  1  6
 31 33  1  0
 33 34  1  6
 30 35  1  0
 33 35  1  0
 35 36  1  1
 36 37  2  0
 37 38  1  0
 38 39  1  0
 39 40  2  0
 39 41  1  0
 38 42  2  0
 42 43  1  0
 36 44  1  0
 43 44  2  0
M  CHG  2  26  -1  36   1
M  END
$$$$
