8AIJ_M9I_BBB_203
     RDKit          3D

 19 20  0  0  0  0  0  0  0  0999 V2000
  -10.4000   11.1626   32.9290 C   0  0  1  0  0  0  0  0  0  0  0  0
  -10.5658   11.7412   34.2685 C   0  0  2  0  0  0  0  0  0  0  0  0
   -9.1762   11.8228   34.8848 C   0  0  1  0  0  0  0  0  0  0  0  0
   -8.6599   10.4181   35.0164 C   0  0  1  0  0  0  0  0  0  0  0  0
   -9.3189    9.4478   34.1024 C   0  0  2  0  0  0  0  0  0  0  0  0
   -8.2737    8.3701   33.7849 C   0  0  0  0  0  0  0  0  0  0  0  0
  -11.3329   11.0167   35.1500 O   0  0  0  0  0  0  0  0  0  0  0  0
   -8.3665   12.4958   33.9798 O   0  0  0  0  0  0  0  0  0  0  0  0
   -7.2670   10.3715   34.8657 O   0  0  0  0  0  0  0  0  0  0  0  0
   -9.7440    9.9413   32.9140 O   0  0  0  0  0  0  0  0  0  0  0  0
  -10.9865    8.9314   31.3161 O   0  0  0  0  0  0  0  0  0  0  0  0
  -11.9297    9.7059   31.6017 C   0  0  0  0  0  0  0  0  0  0  0  0
  -11.5861   10.9741   32.1377 N   0  0  0  0  0  0  0  0  0  0  0  0
  -13.3045    9.3083   31.3878 C   0  0  0  0  0  0  0  0  0  0  0  0
  -14.3903   10.1355   31.5814 C   0  0  0  0  0  0  0  0  0  0  0  0
  -13.5827    8.0194   30.9607 C   0  0  0  0  0  0  0  0  0  0  0  0
  -14.8513    7.5548   30.7322 C   0  0  0  0  0  0  0  0  0  0  0  0
  -15.9456    8.3892   30.9276 C   0  0  0  0  0  0  0  0  0  0  0  0
  -15.6863    9.6763   31.3529 C   0  0  0  0  0  0  0  0  0  0  0  0
  1  2  1  0
  2  3  1  0
  3  4  1  0
  4  5  1  0
  6  5  1  1
  2  7  1  1
  3  8  1  6
  4  9  1  6
  1 10  1  0
  5 10  1  6
 11 12  2  0
  1 13  1  1
 12 13  1  0
 12 14  1  0
 14 15  2  0
 14 16  1  0
 16 17  2  0
 17 18  1  0
 18 19  2  0
 15 19  1  0
M  END
$$$$
