7MYU_ZR7_A_401
     RDKit          3D

 35 39  0  0  0  0  0  0  0  0999 V2000
   52.6155   50.0005   80.6917 O   0  0  0  0  0  0  0  0  0  0  0  0
   37.2567   44.4302   81.8081 C   0  0  0  0  0  0  0  0  0  0  0  0
   39.3789   45.4420   81.8230 C   0  0  0  0  0  0  0  0  0  0  0  0
   43.2997   47.5606   79.7650 C   0  0  0  0  0  0  0  0  0  0  0  0
   40.6956   45.3891   81.3992 N   0  0  0  0  0  0  0  0  0  0  0  0
   41.8368   45.5684   82.2905 C   0  0  0  0  0  0  0  0  0  0  0  0
   41.1010   45.0599   80.0259 C   0  0  0  0  0  0  0  0  0  0  0  0
   42.5801   44.7491   80.1528 C   0  0  2  0  0  0  0  0  0  0  0  0
   43.0495   45.6812   81.2951 C   0  0  2  0  0  0  0  0  0  0  0  0
   49.6988   44.7231   81.7094 O   0  0  0  0  0  0  0  0  0  0  0  0
   49.2254   45.8062   81.4573 C   0  0  0  0  0  0  0  0  0  0  0  0
   50.1101   46.9411   81.2340 C   0  0  0  0  0  0  0  0  0  0  0  0
   49.6525   47.9992   80.5179 N   0  0  0  0  0  0  0  0  0  0  0  0
   50.4565   49.0174   80.3225 C   0  0  0  0  0  0  0  0  0  0  0  0
   51.7909   48.9671   80.8774 C   0  0  0  0  0  0  0  0  0  0  0  0
   52.0932   51.3303   80.7392 C   0  0  0  0  0  0  0  0  0  0  0  0
   52.2407   47.9187   81.5798 N   0  0  0  0  0  0  0  0  0  0  0  0
   51.4018   46.8902   81.7660 C   0  0  0  0  0  0  0  0  0  0  0  0
   47.8943   46.0496   81.3004 N   0  0  0  0  0  0  0  0  0  0  0  0
   46.8336   45.3981   81.9106 C   0  0  0  0  0  0  0  0  0  0  0  0
   46.9285   44.2519   82.7532 C   0  0  0  0  0  0  0  0  0  0  0  0
   45.7628   43.5881   83.1502 C   0  0  0  0  0  0  0  0  0  0  0  0
   44.5447   44.0657   82.7054 C   0  0  0  0  0  0  0  0  0  0  0  0
   43.4926   43.4047   83.0996 F   0  0  0  0  0  0  0  0  0  0  0  0
   45.5979   45.8814   81.4941 C   0  0  0  0  0  0  0  0  0  0  0  0
   44.4145   45.2344   81.8537 C   0  0  0  0  0  0  0  0  0  0  0  0
   43.1448   47.1008   80.9710 N   0  0  0  0  0  0  0  0  0  0  0  0
   43.3816   48.9230   79.5638 N   0  0  0  0  0  0  0  0  0  0  0  0
   43.4250   46.6091   78.2328 S   0  0  0  0  0  0  0  0  0  0  0  0
   43.3908   44.9117   78.8659 C   0  0  0  0  0  0  0  0  0  0  0  0
   38.9979   46.5070   82.6642 N   0  0  0  0  0  0  0  0  0  0  0  0
   37.6984   46.5054   83.0465 C   0  0  0  0  0  0  0  0  0  0  0  0
   36.8031   45.4746   82.6218 C   0  0  0  0  0  0  0  0  0  0  0  0
   35.5693   45.5001   82.9340 F   0  0  0  0  0  0  0  0  0  0  0  0
   38.5299   44.3949   81.3971 N   0  0  0  0  0  0  0  0  0  0  0  0
  3  5  1  0
  5  6  1  0
  5  7  1  0
  8  7  1  6
  6  9  1  0
  8  9  1  0
 10 11  2  0
 11 12  1  0
 12 13  2  0
 13 14  1  0
 14 15  2  0
  1 15  1  0
  1 16  1  0
 15 17  1  0
 12 18  1  0
 17 18  2  0
 11 19  1  0
 19 20  1  0
 20 21  2  0
 21 22  1  0
 22 23  2  0
 23 24  1  0
 20 25  1  0
 23 26  1  0
 25 26  2  0
  9 26  1  1
  9 27  1  0
  4 27  2  0
  4 28  1  0
  4 29  1  0
  8 30  1  0
 29 30  1  0
  3 31  1  0
 31 32  2  0
 32 33  1  0
  2 33  2  0
 33 34  1  0
  3 35  2  0
  2 35  1  0
M  END
