
     RDKit          3D

 27 29  0  0  0  0  0  0  0  0999 V2000
  -28.0218   24.9628  -24.6193 C   0  0  0  0  0  0  0  0  0  0  0  0
  -27.6951   26.2642  -25.4047 C   0  0  0  0  0  0  0  0  0  0  0  0
  -26.0853   24.0012  -25.7364 C   0  0  0  0  0  0  0  0  0  0  0  0
  -25.4443   25.3725  -26.0505 C   0  0  0  0  0  0  0  0  0  0  0  0
  -26.3228   21.2468  -18.8687 C   0  0  0  0  0  0  0  0  0  0  0  0
  -25.0259   21.3783  -19.3605 C   0  0  0  0  0  0  0  0  0  0  0  0
  -24.8042   21.7421  -20.6939 C   0  0  0  0  0  0  0  0  0  0  0  0
  -25.8764   22.0063  -21.5537 C   0  0  0  0  0  0  0  0  0  0  0  0
  -25.6771   22.4533  -22.9868 C   0  0  0  0  0  0  0  0  0  0  0  0
  -26.1626   23.8596  -23.3130 C   0  0  0  0  0  0  0  0  0  0  0  0
  -25.8026   27.7653  -25.8529 C   0  0  0  0  0  0  0  0  0  0  0  0
  -24.9387   30.2353  -26.6842 C   0  0  0  0  0  0  0  0  0  0  0  0
  -24.0133   29.3685  -26.1538 C   0  0  0  0  0  0  0  0  0  0  0  0
  -24.4601   28.1177  -25.7287 C   0  0  0  0  0  0  0  0  0  0  0  0
  -27.2757   19.7844  -17.0727 C   0  0  0  0  0  0  0  0  0  0  0  0
  -28.2140   20.1208  -15.9084 C   0  0  0  0  0  0  0  0  0  0  0  0
  -27.1780   21.8209  -21.0686 C   0  0  0  0  0  0  0  0  0  0  0  0
  -27.3980   21.4422  -19.7403 C   0  0  0  0  0  0  0  0  0  0  0  0
  -26.8626   24.0694  -24.5001 N   0  0  0  0  0  0  0  0  0  0  0  0
  -26.2436   26.4913  -25.4908 N   0  0  0  0  0  0  0  0  0  0  0  0
  -26.6576   28.6619  -26.3987 N   0  0  0  0  0  0  0  0  0  0  0  0
  -26.2355   29.9120  -26.8060 N   0  0  0  0  0  0  0  0  0  0  0  0
  -26.6198   20.9117  -17.5368 N   0  0  0  0  0  0  0  0  0  0  0  0
  -27.1325   18.6314  -17.4653 O   0  0  0  0  0  0  0  0  0  0  0  0
  -28.9934   21.2893  -16.1456 O   0  0  0  0  0  0  0  0  0  0  0  0
  -25.9037   24.7883  -22.5417 O   0  0  0  0  0  0  0  0  0  0  0  0
  -24.5057   31.7969  -27.2312 Cl  0  0  0  0  0  0  0  0  0  0  0  0
  1  2  1  0
  3  4  1  0
  5  6  4  0
  6  7  4  0
  7  8  4  0
  8  9  1  0
  9 10  1  0
 12 13  4  0
 13 14  4  0
 11 14  4  0
 15 16  1  0
  8 17  4  0
 17 18  4  0
  5 18  4  0
  1 19  1  0
  3 19  1  0
 10 19  1  0
 11 20  1  0
  2 20  1  0
  4 20  1  0
 11 21  4  0
 12 22  4  0
 21 22  4  0
  5 23  1  0
 15 23  1  0
 15 24  2  0
 16 25  1  0
 10 26  2  0
 12 27  1  0
M  END
