
     RDKit          3D

 21 22  0  0  0  0  0  0  0  0999 V2000
   45.1181   28.4854    9.6241 O   0  0  0  0  0  0  0  0  0  0  0  0
   46.0823   29.1346   10.3081 C   0  0  0  0  0  0  0  0  0  0  0  0
   46.7915   29.9505    9.7456 O   0  0  0  0  0  0  0  0  0  0  0  0
   46.1366   28.6996   11.7446 C   0  0  0  0  0  0  0  0  0  0  0  0
   47.4635   28.0354   12.1130 C   0  0  1  0  0  0  0  0  0  0  0  0
   48.5463   28.2369   11.0506 C   0  0  0  0  0  0  0  0  0  0  0  0
   48.7027   27.5545   10.0479 O   0  0  0  0  0  0  0  0  0  0  0  0
   49.3217   29.3192   11.2615 O   0  0  0  0  0  0  0  0  0  0  0  0
   47.9852   28.4826   13.4059 N   0  0  0  0  0  0  0  0  0  0  0  0
   47.7509   27.7817   14.5672 C   0  0  0  0  0  0  0  0  0  0  0  0
   46.7607   27.0709   14.7240 O   0  0  0  0  0  0  0  0  0  0  0  0
   48.7804   28.0029   15.6633 C   0  0  0  0  0  0  0  0  0  0  0  0
   50.0038   27.1655   15.4662 C   0  0  0  0  0  0  0  0  0  0  0  0
   51.3140   27.6050   15.4782 C   0  0  0  0  0  0  0  0  0  0  0  0
   52.1299   26.5290   15.2517 N   0  0  0  0  0  0  0  0  0  0  0  0
   50.0411   25.7538   15.2260 C   0  0  0  0  0  0  0  0  0  0  0  0
   49.0544   24.7540   15.1026 C   0  0  0  0  0  0  0  0  0  0  0  0
   51.3802   25.3873   15.0935 C   0  0  0  0  0  0  0  0  0  0  0  0
   51.7845   24.0704   14.8446 C   0  0  0  0  0  0  0  0  0  0  0  0
   50.7872   23.0980   14.7280 C   0  0  0  0  0  0  0  0  0  0  0  0
   49.4410   23.4319   14.8544 C   0  0  0  0  0  0  0  0  0  0  0  0
  1  2  1  0
  2  3  2  0
  2  4  1  0
  5  4  1  6
  5  6  1  0
  6  7  2  0
  6  8  1  0
  5  9  1  0
  9 10  1  0
 10 11  2  0
 10 12  1  0
 12 13  1  0
 13 14  4  0
 14 15  4  0
 13 16  4  0
 16 17  4  0
 15 18  4  0
 16 18  4  0
 18 19  4  0
 19 20  4  0
 17 21  4  0
 20 21  4  0
M  END
