7EN7_J79_A_301
     RDKit          3D

 24 24  0  0  0  0  0  0  0  0999 V2000
    2.6448  -12.6257   -8.9019 C   0  0  1  0  0  0  0  0  0  0  0  0
    4.0576  -13.0992   -8.9808 C   0  0  1  0  0  0  0  0  0  0  0  0
    5.1114  -11.3435   -7.9126 C   0  0  2  0  0  0  0  0  0  0  0  0
    5.9688  -10.0852   -8.1401 C   0  0  0  0  0  0  0  0  0  0  0  0
    5.9851  -12.2651   -7.1450 C   0  0  0  0  0  0  0  0  0  0  0  0
    4.3296  -14.0030  -10.1290 C   0  0  2  0  0  0  0  0  0  0  0  0
    6.8052  -14.2911  -10.5524 C   0  0  0  0  0  0  0  0  0  0  0  0
    7.9896  -13.9736   -9.7133 C   0  0  0  0  0  0  0  0  0  0  0  0
    3.2133  -14.9642  -10.4579 C   0  0  2  0  0  0  0  0  0  0  0  0
    1.6583  -13.4262   -9.7086 C   0  0  1  0  0  0  0  0  0  0  0  0
    1.3897  -12.8170  -11.0591 C   0  0  0  0  0  0  0  0  0  0  0  0
    5.5941  -14.7143   -9.9398 N   0  0  0  0  0  0  0  0  0  0  0  0
    2.2520  -12.6495   -7.5543 O   0  0  0  0  0  0  0  0  0  0  0  0
    4.8465  -11.9379   -9.1432 O   0  0  0  0  0  0  0  0  0  0  0  0
    6.9572  -12.7863   -7.7698 O   0  0  0  0  0  0  0  0  0  0  0  0
    5.7895  -12.5738   -5.8079 O   0  0  0  0  0  0  0  0  0  0  0  0
    6.9453  -14.1634  -11.7980 O   0  0  0  0  0  0  0  0  0  0  0  0
    2.9852  -15.0915  -11.8287 O   0  0  0  0  0  0  0  0  0  0  0  0
    2.0440  -14.7546   -9.7881 O   0  0  0  0  0  0  0  0  0  0  0  0
    0.9157  -13.8203  -11.9006 O   0  0  0  0  0  0  0  0  0  0  0  0
   -1.4393  -15.1666  -11.9138 O   0  0  0  0  0  0  0  0  0  0  0  0
   -1.0129  -13.0443  -13.6943 O   0  0  0  0  0  0  0  0  0  0  0  0
   -1.3452  -12.6621  -11.1579 O   0  0  0  0  0  0  0  0  0  0  0  0
   -0.7560  -13.6532  -12.1604 P   0  0  2  0  0  0  0  0  0  0  0  0
  1  2  1  0
  3  4  1  6
  3  5  1  0
  2  6  1  0
  7  8  1  0
  6  9  1  0
  1 10  1  0
 10 11  1  6
  6 12  1  1
  7 12  1  0
  1 13  1  1
  3 14  1  0
  2 14  1  6
  5 15  2  0
  5 16  1  0
  7 17  2  0
  9 18  1  6
 10 19  1  0
  9 19  1  0
 11 20  1  0
 23 24  2  0
 24 21  1  6
 20 24  1  0
 22 24  1  0
M  END
$$$$
