7VJT_7IJ_B_1801
     RDKit          3D

 46 50  0  0  0  0  0  0  0  0999 V2000
  -16.8070  -20.7019  149.7471 C   0  0  0  0  0  0  0  0  0  0  0  0
  -17.5936  -19.8829  150.5453 C   0  0  0  0  0  0  0  0  0  0  0  0
  -19.2232  -21.6425  150.8086 C   0  0  0  0  0  0  0  0  0  0  0  0
  -13.8442  -23.9756  146.6705 C   0  0  0  0  0  0  0  0  0  0  0  0
  -13.6403  -25.2069  146.0637 C   0  0  0  0  0  0  0  0  0  0  0  0
  -18.2342  -24.7128  148.9847 C   0  0  0  0  0  0  0  0  0  0  0  0
  -16.6370  -27.1471  147.0958 C   0  0  0  0  0  0  0  0  0  0  0  0
  -18.7943  -20.3547  151.0631 C   0  0  0  0  0  0  0  0  0  0  0  0
  -16.9458  -24.2940  148.3925 C   0  0  0  0  0  0  0  0  0  0  0  0
  -15.0004  -23.7906  147.4207 C   0  0  0  0  0  0  0  0  0  0  0  0
  -16.4732  -22.9271  148.6400 C   0  0  0  0  0  0  0  0  0  0  0  0
  -15.7390  -26.0685  146.9476 C   0  0  0  0  0  0  0  0  0  0  0  0
  -14.5703  -26.2413  146.2094 C   0  0  0  0  0  0  0  0  0  0  0  0
  -17.8853  -26.9140  147.8651 N   0  0  0  0  0  0  0  0  0  0  0  0
  -18.4450  -22.4619  150.0156 C   0  0  0  0  0  0  0  0  0  0  0  0
  -17.6150  -26.2437  149.1369 C   0  0  0  0  0  0  0  0  0  0  0  0
  -18.9166  -26.1374  149.9311 C   0  0  0  0  0  0  0  0  0  0  0  0
  -19.8779  -25.2188  149.1905 C   0  0  0  0  0  0  0  0  0  0  0  0
  -20.0926  -25.7224  147.7618 C   0  0  0  0  0  0  0  0  0  0  0  0
  -18.7660  -26.0361  147.0781 C   0  0  0  0  0  0  0  0  0  0  0  0
  -15.9281  -24.8215  147.5778 C   0  0  0  0  0  0  0  0  0  0  0  0
  -17.2495  -21.9966  149.4896 C   0  0  0  0  0  0  0  0  0  0  0  0
  -15.2757  -22.6132  148.0595 O   0  0  0  0  0  0  0  0  0  0  0  0
  -18.9793  -23.7964  149.7798 O   0  0  0  0  0  3  0  0  0  0  0  0
  -18.7652  -25.9076  148.8367 O   0  0  0  0  0  0  0  0  0  0  0  0
  -14.3228  -27.4095  145.6118 O   0  0  0  0  0  0  0  0  0  0  0  0
  -19.5565  -19.5889  151.8362 O   0  0  0  0  0  0  0  0  0  0  0  0
  -15.9163  -20.3596  149.3541 H   0  0  0  0  0  0  0  0  0  0  0  0
  -17.2859  -18.9204  150.7552 H   0  0  0  0  0  0  0  0  0  0  0  0
  -20.1116  -21.9869  151.2050 H   0  0  0  0  0  0  0  0  0  0  0  0
  -13.1542  -23.2151  146.5675 H   0  0  0  0  0  0  0  0  0  0  0  0
  -12.7914  -25.3613  145.4975 H   0  0  0  0  0  0  0  0  0  0  0  0
  -16.9226  -27.4607  146.1135 H   0  0  0  0  0  0  0  0  0  0  0  0
  -16.0969  -27.8670  147.6745 H   0  0  0  0  0  0  0  0  0  0  0  0
  -16.8993  -26.8099  149.6956 H   0  0  0  0  0  0  0  0  0  0  0  0
  -17.2233  -25.2651  148.9531 H   0  0  0  0  0  0  0  0  0  0  0  0
  -19.3549  -27.1082  150.0323 H   0  0  0  0  0  0  0  0  0  0  0  0
  -18.7143  -25.7392  150.9034 H   0  0  0  0  0  0  0  0  0  0  0  0
  -20.8165  -25.2010  149.7040 H   0  0  0  0  0  0  0  0  0  0  0  0
  -19.4628  -24.2332  149.1553 H   0  0  0  0  0  0  0  0  0  0  0  0
  -20.6878  -26.6111  147.7915 H   0  0  0  0  0  0  0  0  0  0  0  0
  -20.5859  -24.9541  147.2040 H   0  0  0  0  0  0  0  0  0  0  0  0
  -18.2521  -25.1146  146.9000 H   0  0  0  0  0  0  0  0  0  0  0  0
  -18.9975  -26.5575  146.1729 H   0  0  0  0  0  0  0  0  0  0  0  0
  -14.9316  -28.1169  145.6954 H   0  0  0  0  0  0  0  0  0  0  0  0
  -20.3630  -19.9228  152.1769 H   0  0  0  0  0  0  0  0  0  0  0  0
  1  2  4  0
  4  5  4  0
  3  8  4  0
  2  8  4  0
  6  9  4  0
  4 10  4  0
  9 11  4  0
  7 12  1  0
 12 13  4  0
  5 13  4  0
  7 14  1  0
  3 15  4  0
 14 16  1  0
 16 17  1  0
 17 18  1  0
 18 19  1  0
 14 20  1  0
 19 20  1  0
  9 21  4  0
 10 21  4  0
 12 21  4  0
 15 22  4  0
  1 22  4  0
 11 22  4  0
 11 23  4  0
 10 23  4  0
 15 24  4  0
  6 24  4  0
  6 25  2  0
 13 26  1  0
  8 27  1  0
  1 28  1  0
  2 29  1  0
  3 30  1  0
  4 31  1  0
  5 32  1  0
  7 33  1  0
  7 34  1  0
 16 35  1  0
 16 36  1  0
 17 37  1  0
 17 38  1  0
 18 39  1  0
 18 40  1  0
 19 41  1  0
 19 42  1  0
 20 43  1  0
 20 44  1  0
 26 45  1  0
 27 46  1  0
M  CHG  1  24   1
M  END
