6T88_MWQ_A_608
     RDKit          3D

 18 18  0  0  0  0  0  0  0  0999 V2000
  -13.4557  -45.2965   -8.9319 O   0  0  0  0  0  0  0  0  0  0  0  0
  -13.5359  -46.4358   -9.4644 C   0  0  0  0  0  0  0  0  0  0  0  0
  -14.2594  -46.6047  -10.6405 O   0  0  0  0  0  0  0  0  0  0  0  0
  -12.8870  -47.6179   -8.8116 C   0  0  1  0  0  0  0  0  0  0  0  0
  -13.1575  -48.9098   -9.5900 C   0  0  1  0  0  0  0  0  0  0  0  0
  -12.3092  -48.9990  -10.8240 C   0  0  0  0  0  0  0  0  0  0  0  0
  -10.9722  -48.6864  -10.9229 C   0  0  0  0  0  0  0  0  0  0  0  0
  -10.5466  -48.9628  -12.1718 N   0  0  0  0  0  0  0  0  0  0  0  0
  -11.6408  -49.4457  -12.7995 C   0  0  0  0  0  0  0  0  0  0  0  0
  -12.7254  -49.4852  -12.0033 N   0  0  0  0  0  0  0  0  0  0  0  0
  -13.7974  -46.5843  -11.5418 H   0  0  0  0  0  0  0  0  0  0  0  0
  -11.7904  -47.4438   -8.7738 H   0  0  0  0  0  0  0  0  0  0  0  0
  -13.2462  -47.7219   -7.7640 H   0  0  0  0  0  0  0  0  0  0  0  0
  -12.9703  -49.7926   -8.9405 H   0  0  0  0  0  0  0  0  0  0  0  0
  -14.2281  -48.9343   -9.8869 H   0  0  0  0  0  0  0  0  0  0  0  0
  -10.3432  -48.2925  -10.1356 H   0  0  0  0  0  0  0  0  0  0  0  0
  -11.6421  -49.7739  -13.8305 H   0  0  0  0  0  0  0  0  0  0  0  0
  -13.6791  -49.8320  -12.2498 H   0  0  0  0  0  0  0  0  0  0  0  0
  1  2  2  0
  2  3  1  0
  2  4  1  0
  4  5  1  0
  5  6  1  0
  6  7  2  0
  7  8  1  0
  8  9  2  0
  9 10  1  0
  6 10  1  0
  3 11  1  0
  4 12  1  1
  4 13  1  0
  5 14  1  1
  5 15  1  0
  7 16  1  0
  9 17  1  0
 10 18  1  0
M  END
