7UYB_OK0_A_303
     RDKit          3D

 31 34  0  0  0  0  0  0  0  0999 V2000
  -22.0072  -14.4854   -9.8244 C   0  0  0  0  0  0  0  0  0  0  0  0
  -21.1482  -14.1199  -10.8563 C   0  0  0  0  0  0  0  0  0  0  0  0
  -20.6764  -12.8062  -10.9692 C   0  0  0  0  0  0  0  0  0  0  0  0
  -19.7597  -12.5042  -12.0995 C   0  0  1  0  0  0  0  0  0  0  0  0
  -18.3655  -13.0453  -11.8840 C   0  0  0  0  0  0  0  0  0  0  0  0
  -18.2575  -14.5358  -12.0204 C   0  0  0  0  0  0  0  0  0  0  0  0
  -19.3713  -13.9973  -14.0781 C   0  0  0  0  0  0  0  0  0  0  0  0
  -20.2497  -12.9646  -13.4274 C   0  0  0  0  0  0  0  0  0  0  0  0
  -21.0880  -11.9099  -10.0372 C   0  0  0  0  0  0  0  0  0  0  0  0
  -25.1509  -14.3356   -5.8351 C   0  0  0  0  0  0  0  0  0  0  0  0
  -26.2617  -15.9223   -4.4191 F   0  0  0  0  0  0  0  0  0  0  0  0
  -26.2521  -14.6261   -4.8944 C   0  0  1  0  0  0  0  0  0  0  0  0
  -26.2577  -13.7068   -3.8347 F   0  0  0  0  0  0  0  0  0  0  0  0
  -27.4988  -14.4545   -5.4889 F   0  0  0  0  0  0  0  0  0  0  0  0
  -23.8077  -14.3847   -5.4993 C   0  0  0  0  0  0  0  0  0  0  0  0
  -23.3101  -14.7241   -3.8616 S   0  0  2  0  0  6  0  0  0  0  0  0
  -24.3569  -15.5152   -3.0947 O   0  0  0  0  0  0  0  0  0  0  0  0
  -23.0867  -13.2877   -2.9468 N   0  0  0  0  0  0  0  0  0  0  0  0
  -22.0761  -15.5739   -3.7756 O   0  0  0  0  0  0  0  0  0  0  0  0
  -22.8438  -14.1338   -6.5011 C   0  0  0  0  0  0  0  0  0  0  0  0
  -21.4107  -14.0911   -6.1538 C   0  0  0  0  0  0  0  0  0  0  0  0
  -20.4781  -15.0205   -6.2119 N   0  0  0  0  0  0  0  0  0  0  0  0
  -19.3174  -14.4524   -5.8676 N   0  0  0  0  0  0  0  0  0  0  0  0
  -19.5396  -13.1853   -5.6002 N   0  0  0  0  0  0  0  0  0  0  0  0
  -20.8108  -12.9596   -5.7722 N   0  0  0  0  0  0  0  0  0  0  0  0
  -25.5598  -14.0424   -7.1474 C   0  0  0  0  0  0  0  0  0  0  0  0
  -24.6431  -13.8040   -8.1048 C   0  0  0  0  0  0  0  0  0  0  0  0
  -23.2789  -13.8505   -7.7761 C   0  0  0  0  0  0  0  0  0  0  0  0
  -22.3964  -13.5267   -8.8982 C   0  0  0  0  0  0  0  0  0  0  0  0
  -21.9412  -12.2050   -8.9846 C   0  0  0  0  0  0  0  0  0  0  0  0
  -18.9117  -15.0211  -13.1957 N   0  0  0  0  0  0  0  0  0  0  0  0
  1  2  2  0
  2  3  1  0
  4  3  1  1
  4  5  1  0
  5  6  1  6
  8  7  1  6
  4  8  1  0
  3  9  2  0
 10 12  1  0
 12 11  1  1
 12 13  1  0
 12 14  1  0
 10 15  2  0
 15 16  1  0
 16 17  2  0
 16 18  1  1
 16 19  2  0
 15 20  1  0
 20 21  1  0
 21 22  1  0
 22 23  1  0
 23 24  2  0
 24 25  1  0
 21 25  2  0
 10 26  1  0
 26 27  2  0
 20 28  2  0
 27 28  1  0
  1 29  1  0
 28 29  1  0
  9 30  1  0
 29 30  2  0
  7 31  1  6
  6 31  1  6
M  END
$$$$
