
     RDKit          3D

 29 30  0  0  0  0  0  0  0  0999 V2000
   13.0208   51.0124  159.9514 N   0  0  0  0  0  0  0  0  0  0  0  0
   12.0880   51.4679  160.8744 C   0  0  0  0  0  0  0  0  0  0  0  0
   12.2812   51.2206  162.2107 N   0  0  0  0  0  0  0  0  0  0  0  0
   13.3227   50.5481  162.5927 C   0  0  0  0  0  0  0  0  0  0  0  0
   14.3218   50.0084  161.6512 C   0  0  0  0  0  0  0  0  0  0  0  0
   14.1077   50.2683  160.3626 C   0  0  0  0  0  0  0  0  0  0  0  0
   11.0811   52.1019  160.5646 O   0  0  0  0  0  0  0  0  0  0  0  0
   13.4718   50.3371  163.9337 N   0  0  0  0  0  0  0  0  0  0  0  0
   12.7907   51.1729  158.5139 C   0  0  1  0  0  0  0  0  0  0  0  0
   13.8055   52.0821  157.8103 C   0  0  2  0  0  0  0  0  0  0  0  0
   13.4791   53.4674  157.9126 O   0  0  0  0  0  0  0  0  0  0  0  0
   13.6897   51.5850  156.3766 C   0  0  1  0  0  0  0  0  0  0  0  0
   13.5110   50.0796  156.5706 C   0  0  2  0  0  0  0  0  0  0  0  0
   12.8245   49.9034  157.8392 O   0  0  0  0  0  0  0  0  0  0  0  0
   12.5115   52.1820  155.8051 O   0  0  0  0  0  0  0  0  0  0  0  0
   14.8663   49.3627  156.5967 C   0  0  0  0  0  0  0  0  0  0  0  0
   15.1049   48.7474  155.3410 O   0  0  0  0  0  0  0  0  0  0  0  0
   15.9177   49.5501  154.2190 P   0  0  2  0  0  5  0  0  0  0  0  0
   15.1937   49.7398  152.9291 O   0  0  0  0  0  0  0  0  0  0  0  0
   17.2231   48.6245  154.1057 O   0  0  0  0  0  0  0  0  0  0  0  0
   16.5146   50.8423  154.9144 O   0  0  0  0  0  0  0  0  0  0  0  0
   17.6545   51.7753  154.3388 P   0  0  2  0  0  5  0  0  0  0  0  0
   17.6656   53.1709  154.8724 O   0  0  0  0  0  0  0  0  0  0  0  0
   17.4407   51.6768  152.7529 O   0  0  0  0  0  0  0  0  0  0  0  0
   19.0243   50.9908  154.5632 O   0  0  0  0  0  0  0  0  0  0  0  0
   20.3686   51.4952  153.8949 P   0  0  0  0  0  5  0  0  0  0  0  0
   20.4354   51.1632  152.4394 O   0  0  0  0  0  0  0  0  0  0  0  0
   21.5210   50.8111  154.7704 O   0  0  0  0  0  0  0  0  0  0  0  0
   20.4993   53.0407  154.2536 O   0  0  0  0  0  0  0  0  0  0  0  0
  1  2  4  0
  2  3  4  0
  3  4  4  0
  4  5  4  0
  1  6  4  0
  5  6  4  0
  2  7  2  0
  4  8  1  0
  9  1  1  1
  9 10  1  0
 10 11  1  6
 10 12  1  0
 12 13  1  0
  9 14  1  0
 13 14  1  0
 12 15  1  1
 13 16  1  1
 16 17  1  0
 17 18  1  0
 18 19  2  0
 18 20  1  6
 18 21  1  0
 21 22  1  0
 22 23  2  0
 22 24  1  6
 22 25  1  0
 25 26  1  0
 26 27  2  0
 26 28  1  0
 26 29  1  0
M  END
