
     RDKit          3D

  9  9  0  0  0  0  0  0  0  0999 V2000
   -2.1477   -5.7525    7.1997 Cl  0  0  0  0  0  0  0  0  0  0  0  0
   -2.3149   -7.4044    6.7433 C   0  0  0  0  0  0  0  0  0  0  0  0
   -3.4652   -7.8196    6.0655 C   0  0  0  0  0  0  0  0  0  0  0  0
   -3.6070   -9.1573    5.6927 C   0  0  0  0  0  0  0  0  0  0  0  0
   -2.5963  -10.0558    6.0042 C   0  0  0  0  0  0  0  0  0  0  0  0
   -2.7349  -11.3638    5.6396 O   0  0  0  0  0  0  0  0  0  0  0  0
   -1.4502   -9.6394    6.6801 C   0  0  0  0  0  0  0  0  0  0  0  0
   -1.2987   -8.3104    7.0559 C   0  0  0  0  0  0  0  0  0  0  0  0
   -0.4974  -10.5824    6.9522 O   0  0  0  0  0  0  0  0  0  0  0  0
  1  2  1  0
  2  3  4  0
  3  4  4  0
  4  5  4  0
  5  6  1  0
  5  7  4  0
  2  8  4  0
  7  8  4  0
  7  9  1  0
M  END
