7P1M_4IU_B_201
     RDKit          3D

 24 26  0  0  0  0  0  0  0  0999 V2000
   23.9292   -0.5066  -11.7783 O   0  0  0  0  0  0  0  0  0  0  0  0
   24.7501   -1.3256  -11.3794 C   0  0  0  0  0  0  0  0  0  0  0  0
   25.8874   -1.5449  -12.0404 O   0  0  0  0  0  0  0  0  0  0  0  0
   24.5164   -2.2157  -10.2083 C   0  0  0  0  0  0  0  0  0  0  0  0
   23.2501   -2.2685   -9.6775 C   0  0  0  0  0  0  0  0  0  0  0  0
   22.9761   -3.0853   -8.6022 C   0  0  0  0  0  0  0  0  0  0  0  0
   23.9104   -3.9220   -8.0605 C   0  0  0  0  0  0  0  0  0  0  0  0
   23.9212   -4.8366   -7.0518 N   0  0  0  0  0  0  0  0  0  0  0  0
   25.5495   -3.0205   -9.6745 C   0  0  0  0  0  0  0  0  0  0  0  0
   25.2653   -3.8848   -8.6145 C   0  0  0  0  0  0  0  0  0  0  0  0
   25.9762   -4.7622   -7.9238 N   0  0  0  0  0  0  0  0  0  0  0  0
   27.4099   -4.9710   -8.1835 C   0  0  0  0  0  0  0  0  0  0  0  0
   25.2066   -5.3203   -6.9702 C   0  0  0  0  0  0  0  0  0  0  0  0
   25.6968   -6.3281   -5.9983 C   0  0  0  0  0  0  0  0  0  0  0  0
   26.0556   -7.5426   -6.6204 O   0  0  0  0  0  0  0  0  0  0  0  0
   25.6783   -8.6396   -5.7635 C   0  0  2  0  0  0  0  0  0  0  0  0
   26.8722   -9.5416   -5.6097 C   0  0  0  0  0  0  0  0  0  0  0  0
   26.7758  -10.8380   -5.5545 C   0  0  0  0  0  0  0  0  0  0  0  0
   25.5053  -11.5194   -5.6659 O   0  0  0  0  0  0  0  0  0  0  0  0
   24.2871  -10.6871   -5.7098 C   0  0  1  0  0  0  0  0  0  0  0  0
   24.5860   -9.3709   -6.4610 C   0  0  2  0  0  0  0  0  0  0  0  0
   25.0633   -9.4853   -7.8340 O   0  0  0  0  0  0  0  0  0  0  0  0
   23.1526  -11.4510   -6.3419 C   0  0  0  0  0  0  0  0  0  0  0  0
   23.1941  -12.7864   -5.7794 O   0  0  0  0  0  0  0  0  0  0  0  0
  1  2  1  0
  2  3  2  0
  2  4  1  0
  4  5  2  0
  5  6  1  0
  6  7  2  0
  7  8  1  0
  4  9  1  0
  7 10  1  0
  9 10  2  0
 10 11  1  0
 11 12  1  0
  8 13  2  0
 11 13  1  0
 13 14  1  0
 14 15  1  0
 16 15  1  6
 16 17  1  0
 17 18  2  0
 18 19  1  0
 19 20  1  0
 16 21  1  0
 20 21  1  0
 21 22  1  6
 20 23  1  6
 23 24  1  0
M  END
