1HWI_115_B_1
     RDKit          3D

 56 58  0  0  0  0  0  0  0  0999 V2000
    0.5517    1.0469    3.4617 C   0  0  0  0  0  0  0  0  0  0  0  0
    0.1338    1.2683    4.7527 C   0  0  0  0  0  0  0  0  0  0  0  0
   -0.0949    2.5732    5.2169 C   0  0  0  0  0  0  0  0  0  0  0  0
    0.1047    3.6426    4.3267 C   0  0  0  0  0  0  0  0  0  0  0  0
    0.5372    3.4043    3.0074 C   0  0  0  0  0  0  0  0  0  0  0  0
    0.7743    2.0939    2.5646 C   0  0  0  0  0  0  0  0  0  0  0  0
    0.7456   -0.3104    3.3182 C   0  0  0  0  0  0  0  0  0  0  0  0
    0.4262   -0.8722    4.5608 C   0  0  0  0  0  0  0  0  0  0  0  0
    0.0351    0.1010    5.4386 N   0  0  0  0  0  4  0  0  0  0  0  0
    2.3695   -2.9220    1.1138 C   0  0  0  0  0  0  0  0  0  0  0  0
    1.8855   -2.2607    2.2461 C   0  0  0  0  0  0  0  0  0  0  0  0
    1.2855   -0.9970    2.1259 C   0  0  0  0  0  0  0  0  0  0  0  0
    1.1919   -0.3969    0.8603 C   0  0  0  0  0  0  0  0  0  0  0  0
    1.6810   -1.0589   -0.2703 C   0  0  0  0  0  0  0  0  0  0  0  0
    2.2670   -2.3220   -0.1445 C   0  0  0  0  0  0  0  0  0  0  0  0
    2.7365   -2.9641   -1.2423 F   0  0  0  0  0  0  0  0  0  0  0  0
    1.8880   -6.4432   -0.4691 O   0  0  0  0  0  0  0  0  0  0  0  0
    3.0493   -5.0382    0.9287 O   0  0  0  0  0  0  0  0  0  0  0  0
   -0.8838   -6.3890    1.3113 O   0  0  0  0  0  0  0  0  0  0  0  0
    1.8758   -5.4474    0.3031 C   0  0  0  0  0  0  0  0  0  0  0  0
    0.6030   -4.6894    0.5303 C   0  0  0  0  0  0  0  0  0  0  0  0
   -0.1949   -5.2413    1.7284 C   0  0  2  0  0  0  0  0  0  0  0  0
    0.7455   -5.6013    2.9026 C   0  0  0  0  0  0  0  0  0  0  0  0
    0.6191   -4.7351    4.1812 C   0  0  2  0  0  0  0  0  0  0  0  0
    0.5560   -3.2454    3.9201 C   0  0  0  0  0  0  0  0  0  0  0  0
    0.5048   -2.3143    4.8805 C   0  0  0  0  0  0  0  0  0  0  0  0
   -0.3885   -0.0438    6.8490 C   0  0  2  0  0  0  0  0  0  0  0  0
    0.6626   -0.8072    7.6586 C   0  0  0  0  0  0  0  0  0  0  0  0
   -1.7866   -0.6659    6.9814 C   0  0  0  0  0  0  0  0  0  0  0  0
    1.5536   -5.0804    5.1752 O   0  0  0  0  0  0  0  0  0  0  0  0
   -0.4011    2.7824    6.2310 H   0  0  0  0  0  0  0  0  0  0  0  0
   -0.0648    4.6581    4.6608 H   0  0  0  0  0  0  0  0  0  0  0  0
    0.6979    4.2368    2.3348 H   0  0  0  0  0  0  0  0  0  0  0  0
    1.1290    1.9109    1.5590 H   0  0  0  0  0  0  0  0  0  0  0  0
    2.8256   -3.8984    1.2135 H   0  0  0  0  0  0  0  0  0  0  0  0
    1.9857   -2.7286    3.2161 H   0  0  0  0  0  0  0  0  0  0  0  0
    0.7248    0.5737    0.7464 H   0  0  0  0  0  0  0  0  0  0  0  0
    1.5999   -0.5941   -1.2445 H   0  0  0  0  0  0  0  0  0  0  0  0
    3.9188   -5.5355    0.7781 H   0  0  0  0  0  0  0  0  0  0  0  0
   -1.6958   -6.0817    0.8293 H   0  0  0  0  0  0  0  0  0  0  0  0
    0.8625   -3.6248    0.7192 H   0  0  0  0  0  0  0  0  0  0  0  0
   -0.0210   -4.7194   -0.3897 H   0  0  0  0  0  0  0  0  0  0  0  0
   -0.9182   -4.4597    2.0555 H   0  0  0  0  0  0  0  0  0  0  0  0
    1.7967   -5.5044    2.5551 H   0  0  0  0  0  0  0  0  0  0  0  0
    0.5983   -6.6703    3.1751 H   0  0  0  0  0  0  0  0  0  0  0  0
   -0.3779   -4.9922    4.6018 H   0  0  0  0  0  0  0  0  0  0  0  0
    0.5028   -2.9326    2.8840 H   0  0  0  0  0  0  0  0  0  0  0  0
    0.4879   -2.6083    5.9166 H   0  0  0  0  0  0  0  0  0  0  0  0
   -0.4802    0.9600    7.3105 H   0  0  0  0  0  0  0  0  0  0  0  0
    0.7837   -1.8454    7.2916 H   0  0  0  0  0  0  0  0  0  0  0  0
    0.3671   -0.8416    8.7289 H   0  0  0  0  0  0  0  0  0  0  0  0
    1.6416   -0.2885    7.5825 H   0  0  0  0  0  0  0  0  0  0  0  0
   -2.4739   -0.2251    6.2283 H   0  0  0  0  0  0  0  0  0  0  0  0
   -1.7691   -1.7668    6.8614 H   0  0  0  0  0  0  0  0  0  0  0  0
   -2.1963   -0.4525    7.9921 H   0  0  0  0  0  0  0  0  0  0  0  0
    2.4545   -4.8032    4.8745 H   0  0  0  0  0  0  0  0  0  0  0  0
  1  2  4  0
  2  3  4  0
  3  4  4  0
  4  5  4  0
  1  6  4  0
  5  6  4  0
  1  7  4  0
  7  8  4  0
  8  9  4  0
  2  9  4  0
 10 11  4  0
  7 12  1  0
 11 12  4  0
 12 13  4  0
 13 14  4  0
 14 15  4  0
 10 15  4  0
 15 16  1  0
 17 20  2  0
 18 20  1  0
 20 21  1  0
 21 22  1  0
 22 19  1  0
 22 23  1  0
 23 24  1  0
 24 25  1  0
 25 26  2  3
  8 26  1  0
  9 27  1  0
 27 28  1  0
 27 29  1  0
 24 30  1  0
  3 31  1  0
  4 32  1  0
  5 33  1  0
  6 34  1  0
 10 35  1  0
 11 36  1  0
 13 37  1  0
 14 38  1  0
 18 39  1  0
 19 40  1  0
 21 41  1  0
 21 42  1  0
 22 43  1  6
 23 44  1  0
 23 45  1  0
 24 46  1  6
 25 47  1  0
 26 48  1  0
 27 49  1  6
 28 50  1  0
 28 51  1  0
 28 52  1  0
 29 53  1  0
 29 54  1  0
 29 55  1  0
 30 56  1  0
M  CHG  1   9   1
M  END
