
     RDKit          3D

 28 30  0  0  0  0  0  0  0  0999 V2000
    4.8678   -6.8366   25.9256 P   0  0  2  0  0  5  0  0  0  0  0  0
    5.7811   -7.9410   25.5244 O   0  0  0  0  0  0  0  0  0  0  0  0
    3.5662   -6.7513   24.9946 O   0  0  0  0  0  0  0  0  0  0  0  0
    5.5222   -5.3980   25.7255 O   0  0  0  0  0  0  0  0  0  0  0  0
    4.3175   -6.8589   27.4039 O   0  0  0  0  0  0  0  0  0  0  0  0
    5.2234   -6.7254   28.6983 P   0  0  1  0  0  5  0  0  0  0  0  0
    6.4875   -7.5232   28.7299 O   0  0  0  0  0  0  0  0  0  0  0  0
    5.4709   -5.1447   28.8069 O   0  0  0  0  0  0  0  0  0  0  0  0
    4.1949   -6.9968   29.8991 O   0  0  0  0  0  0  0  0  0  0  0  0
    4.1077   -6.0030   30.9095 C   0  0  0  0  0  0  0  0  0  0  0  0
    4.6712   -6.5495   32.2242 C   0  0  1  0  0  0  0  0  0  0  0  0
    4.0241   -7.8128   32.5383 O   0  0  0  0  0  0  0  0  0  0  0  0
    6.1703   -6.8357   32.1193 C   0  0  1  0  0  0  0  0  0  0  0  0
    6.7910   -6.7073   33.4073 O   0  0  0  0  0  0  0  0  0  0  0  0
    6.2062   -8.2940   31.6962 C   0  0  1  0  0  0  0  0  0  0  0  0
    7.4669   -8.8806   32.0272 O   0  0  0  0  0  0  0  0  0  0  0  0
    5.0282   -8.8430   32.5015 C   0  0  2  0  0  0  0  0  0  0  0  0
    4.4684  -10.0623   31.9544 N   0  0  0  0  0  0  0  0  0  0  0  0
    4.6269  -10.4871   30.6568 C   0  0  0  0  0  0  0  0  0  0  0  0
    3.9335  -11.5786   30.4022 N   0  0  0  0  0  0  0  0  0  0  0  0
    3.3263  -11.8798   31.5943 C   0  0  0  0  0  0  0  0  0  0  0  0
    2.4420  -12.9671   31.9535 C   0  0  0  0  0  0  0  0  0  0  0  0
    2.0455  -13.8502   31.1993 O   0  0  0  0  0  0  0  0  0  0  0  0
    2.0604  -12.9133   33.2867 N   0  0  0  0  0  0  0  0  0  0  0  0
    2.4426  -11.9263   34.1737 C   0  0  0  0  0  0  0  0  0  0  0  0
    1.9773  -12.0557   35.4421 N   0  0  0  0  0  0  0  0  0  0  0  0
    3.2117  -10.9216   33.8511 N   0  0  0  0  0  0  0  0  0  0  0  0
    3.6350  -10.9550   32.5663 C   0  0  0  0  0  0  0  0  0  0  0  0
  1  2  2  0
  1  3  1  6
  1  4  1  0
  1  5  1  0
  5  6  1  0
  6  7  2  0
  6  8  1  1
  6  9  1  0
  9 10  1  0
 11 10  1  6
 11 12  1  0
 11 13  1  0
 13 14  1  1
 13 15  1  0
 15 16  1  1
 12 17  1  0
 15 17  1  0
 17 18  1  6
 18 19  4  0
 19 20  4  0
 20 21  4  0
 21 22  4  0
 22 23  2  0
 22 24  4  0
 24 25  4  0
 25 26  1  0
 25 27  4  0
 18 28  4  0
 21 28  4  0
 27 28  4  0
M  END
