1YWR_LI9_A_361
     RDKit          3D

 64 68  0  0  0  0  0  0  0  0999 V2000
   -4.3776   -2.3962   -0.9563 C   0  0  0  0  0  0  0  0  0  0  0  0
   -6.8717   -2.1345   -2.1923 C   0  0  0  0  0  0  0  0  0  0  0  0
   -4.6508   -1.2568   -1.7339 C   0  0  0  0  0  0  0  0  0  0  0  0
   -5.3488   -3.3871   -0.7899 C   0  0  0  0  0  0  0  0  0  0  0  0
   -6.5956   -3.2568   -1.4071 C   0  0  0  0  0  0  0  0  0  0  0  0
   -5.9040   -1.1392   -2.3580 C   0  0  0  0  0  0  0  0  0  0  0  0
   -3.6303   -0.1968   -1.9080 C   0  0  0  0  0  0  0  0  0  0  0  0
   -7.5360   -4.2202   -1.2470 F   0  0  0  0  0  0  0  0  0  0  0  0
   -2.6551    1.7424   -2.4970 N   0  0  0  0  0  4  0  0  0  0  0  0
   -2.4132    3.1375   -2.9422 C   0  0  2  0  0  0  0  0  0  0  0  0
   -0.2817    1.2646   -1.8963 C   0  0  0  0  0  0  0  0  0  0  0  0
   -2.2608   -0.2596   -1.6801 C   0  0  0  0  0  0  0  0  0  0  0  0
   -1.5226   -1.4152   -1.1244 C   0  0  0  0  0  0  0  0  0  0  0  0
   -4.9442    1.5232   -2.7805 O   0  0  0  0  0  0  0  0  0  0  0  0
   -3.8303    1.0726   -2.4137 C   0  0  0  0  0  0  0  0  0  0  0  0
   -1.7055    0.9312   -2.0215 N   0  0  0  0  0  4  0  0  0  0  0  0
   -1.9911    4.8200   -0.9772 C   0  0  0  0  0  0  0  0  0  0  0  0
   -0.1145    3.8287   -2.0924 C   0  0  0  0  0  0  0  0  0  0  0  0
   -0.9266    3.3570   -3.2933 C   0  0  0  0  0  0  0  0  0  0  0  0
   -2.9899    4.2369   -2.0012 C   0  0  0  0  0  0  0  0  0  0  0  0
   -0.6827    5.0792   -1.5849 N   0  0  0  0  0  0  0  0  0  0  0  0
   -1.8344   -2.6762   -1.5274 N   0  0  0  0  0  0  0  0  0  0  0  0
    0.0847   -2.3538    0.3886 C   0  0  0  0  0  0  0  0  0  0  0  0
   -1.5667   -5.1027   -1.3979 N   0  0  0  0  0  0  0  0  0  0  0  0
   -0.5342   -1.2306   -0.1508 C   0  0  0  0  0  0  0  0  0  0  0  0
   -1.2191   -3.7664   -0.9940 C   0  0  0  0  0  0  0  0  0  0  0  0
   -0.2698   -3.5940   -0.0367 N   0  0  0  0  0  0  0  0  0  0  0  0
   -2.8813   -5.7616   -1.3025 C   0  0  2  0  0  0  0  0  0  0  0  0
   -4.0021   -4.7990   -1.6414 C   0  0  0  0  0  0  0  0  0  0  0  0
   -3.1245   -6.4688    0.0377 C   0  0  0  0  0  0  0  0  0  0  0  0
   -6.0646   -3.0024   -2.3053 C   0  0  0  0  0  0  0  0  0  0  0  0
   -5.3488   -5.1936   -1.5578 C   0  0  0  0  0  0  0  0  0  0  0  0
   -3.7034   -3.4871   -2.0617 C   0  0  0  0  0  0  0  0  0  0  0  0
   -4.7307   -2.5937   -2.3856 C   0  0  0  0  0  0  0  0  0  0  0  0
   -6.3729   -4.3028   -1.8929 C   0  0  0  0  0  0  0  0  0  0  0  0
   -3.4108   -2.5259   -0.4875 H   0  0  0  0  0  0  0  0  0  0  0  0
   -7.8366   -2.0333   -2.6724 H   0  0  0  0  0  0  0  0  0  0  0  0
   -5.1311   -4.2571   -0.1851 H   0  0  0  0  0  0  0  0  0  0  0  0
   -6.1407   -0.2691   -2.9577 H   0  0  0  0  0  0  0  0  0  0  0  0
   -2.9811    3.2710   -3.8907 H   0  0  0  0  0  0  0  0  0  0  0  0
    0.1598    0.7421   -1.0219 H   0  0  0  0  0  0  0  0  0  0  0  0
    0.2525    0.9757   -2.8257 H   0  0  0  0  0  0  0  0  0  0  0  0
   -0.1297    2.3478   -1.7152 H   0  0  0  0  0  0  0  0  0  0  0  0
   -1.8748    4.1678   -0.0882 H   0  0  0  0  0  0  0  0  0  0  0  0
   -2.4041    5.7804   -0.5971 H   0  0  0  0  0  0  0  0  0  0  0  0
   -0.0926    3.0427   -1.3006 H   0  0  0  0  0  0  0  0  0  0  0  0
    0.9316    4.0096   -2.4222 H   0  0  0  0  0  0  0  0  0  0  0  0
   -0.4755    2.4207   -3.6835 H   0  0  0  0  0  0  0  0  0  0  0  0
   -0.8513    4.1239   -4.0947 H   0  0  0  0  0  0  0  0  0  0  0  0
   -3.8954    3.8630   -1.4767 H   0  0  0  0  0  0  0  0  0  0  0  0
   -3.3273    5.0873   -2.6357 H   0  0  0  0  0  0  0  0  0  0  0  0
   -0.0458    5.4299   -0.8301 H   0  0  0  0  0  0  0  0  0  0  0  0
    0.8402   -2.2407    1.1532 H   0  0  0  0  0  0  0  0  0  0  0  0
   -0.8167   -5.6515   -1.8754 H   0  0  0  0  0  0  0  0  0  0  0  0
   -0.2549   -0.2397    0.1860 H   0  0  0  0  0  0  0  0  0  0  0  0
   -2.8749   -6.5727   -2.0648 H   0  0  0  0  0  0  0  0  0  0  0  0
   -3.9658   -7.1888   -0.0723 H   0  0  0  0  0  0  0  0  0  0  0  0
   -2.2218   -7.0375    0.3469 H   0  0  0  0  0  0  0  0  0  0  0  0
   -3.3997   -5.7509    0.8367 H   0  0  0  0  0  0  0  0  0  0  0  0
   -6.8592   -2.3105   -2.5538 H   0  0  0  0  0  0  0  0  0  0  0  0
   -5.6072   -6.1816   -1.2215 H   0  0  0  0  0  0  0  0  0  0  0  0
   -2.6747   -3.1571   -2.1398 H   0  0  0  0  0  0  0  0  0  0  0  0
   -4.4920   -1.5838   -2.7015 H   0  0  0  0  0  0  0  0  0  0  0  0
   -7.4064   -4.6173   -1.8222 H   0  0  0  0  0  0  0  0  0  0  0  0
  1  3  4  0
  1  4  4  0
  2  5  4  0
  4  5  4  0
  2  6  4  0
  3  6  4  0
  3  7  1  0
  5  8  1  0
  9 10  1  0
  7 12  4  0
 12 13  1  0
  7 15  4  0
  9 15  4  0
 14 15  2  0
  9 16  4  0
 11 16  1  0
 12 16  4  0
 10 19  1  0
 18 19  1  0
 10 20  1  0
 17 20  1  0
 17 21  1  0
 18 21  1  0
 13 22  4  0
 13 25  4  0
 23 25  4  0
 22 26  4  0
 24 26  1  0
 23 27  4  0
 26 27  4  0
 24 28  1  0
 28 29  1  0
 28 30  1  0
 29 32  4  0
 29 33  4  0
 31 34  4  0
 33 34  4  0
 31 35  4  0
 32 35  4  0
  1 36  1  0
  2 37  1  0
  4 38  1  0
  6 39  1  0
 10 40  1  6
 11 41  1  0
 11 42  1  0
 11 43  1  0
 17 44  1  0
 17 45  1  0
 18 46  1  0
 18 47  1  0
 19 48  1  0
 19 49  1  0
 20 50  1  0
 20 51  1  0
 21 52  1  0
 23 53  1  0
 24 54  1  0
 25 55  1  0
 28 56  1  6
 30 57  1  0
 30 58  1  0
 30 59  1  0
 31 60  1  0
 32 61  1  0
 33 62  1  0
 34 63  1  0
 35 64  1  0
M  CHG  2   9   1  16   1
M  END
