
     RDKit          3D

 13 12  0  0  0  0  0  0  0  0999 V2000
   18.8109  -24.6778    6.0610 C   0  0  0  0  0  0  0  0  0  0  0  0
   19.1668  -25.1886    4.6619 C   0  0  0  0  0  0  0  0  0  0  0  0
   20.4031  -24.5284    4.0713 C   0  0  0  0  0  0  0  0  0  0  0  0
   21.1092  -24.3556    9.2655 C   0  0  0  0  0  0  0  0  0  0  0  0
   17.6696  -25.2546    8.1744 C   0  0  0  0  0  0  0  0  0  0  0  0
   18.6417  -25.7664    7.1346 C   0  0  2  0  0  0  0  0  0  0  0  0
   19.9603  -26.1570    7.8170 C   0  0  0  0  0  0  0  0  0  0  0  0
   20.9121  -24.9870    7.8769 C   0  0  0  0  0  0  0  0  0  0  0  0
   21.5107  -24.5619    6.8970 O   0  0  0  0  0  0  0  0  0  0  0  0
   21.1196  -23.1558    9.4602 O   0  0  0  0  0  0  0  0  0  0  0  0
   21.2667  -25.2486   10.2452 O   0  0  0  0  0  0  0  0  0  0  0  0
   17.8727  -24.3712    8.9898 O   0  0  0  0  0  0  0  0  0  0  0  0
   16.4719  -25.8651    8.1041 O   0  0  0  0  0  0  0  0  0  0  0  0
  1  2  1  0
  2  3  1  0
  6  1  1  6
  5  6  1  0
  6  7  1  0
  7  8  1  0
  4  8  1  0
  8  9  2  0
  4 10  2  0
  4 11  1  0
  5 12  2  0
  5 13  1  0
M  END
