7MFP_Z7P_C_401
     RDKit          3D

 83 86  0  0  0  0  0  0  0  0999 V2000
  -51.8366  -18.8492   20.2429 O   0  0  0  0  0  0  0  0  0  0  0  0
  -51.1491  -17.8207   20.4789 C   0  0  0  0  0  0  0  0  0  0  0  0
  -50.2275  -17.3710   19.5396 C   0  0  0  0  0  0  0  0  0  0  0  0
  -49.4713  -16.2407   19.8337 C   0  0  0  0  0  0  0  0  0  0  0  0
  -51.3025  -17.1495   21.6506 N   0  0  0  0  0  0  0  0  0  0  0  0
  -50.5621  -16.0397   21.9279 C   0  0  0  0  0  0  0  0  0  0  0  0
  -50.7515  -15.4325   23.0181 O   0  0  0  0  0  0  0  0  0  0  0  0
  -49.6240  -15.5896   21.0270 N   0  0  0  0  0  0  0  0  0  0  0  0
  -48.7895  -14.3997   21.2969 C   0  0  2  0  0  0  0  0  0  0  0  0
  -49.3384  -13.6511   22.3588 O   0  0  0  0  0  0  0  0  0  0  0  0
  -48.6781  -13.5092   20.0481 C   0  0  2  0  0  0  0  0  0  0  0  0
  -47.3488  -13.4362   19.5827 O   0  0  0  0  0  0  0  0  0  0  0  0
  -49.2132  -12.1668   20.5082 C   0  0  2  0  0  0  0  0  0  0  0  0
  -48.4096  -11.1015   20.0661 O   0  0  0  0  0  0  0  0  0  0  0  0
  -49.1941  -12.2916   22.0303 C   0  0  1  0  0  0  0  0  0  0  0  0
  -50.3153  -11.4769   22.6867 C   0  0  1  0  0  0  0  0  0  0  0  0
  -50.0256  -11.3040   24.0542 O   0  0  0  0  0  0  0  0  0  0  0  0
  -51.1147  -10.1635   24.7056 P   0  0  1  0  0  5  0  0  0  0  0  0
  -51.6107   -9.2722   23.5894 O   0  0  0  0  0  0  0  0  0  0  0  0
  -52.4427  -10.9485   25.4142 O   0  0  0  0  0  0  0  0  0  0  0  0
  -50.2731   -9.1880   25.8243 O   0  0  0  0  0  0  0  0  0  0  0  0
  -49.3997  -10.2042   26.8750 P   0  0  1  0  0  5  0  0  0  0  0  0
  -47.9301   -9.8638   26.7746 O   0  0  0  0  0  0  0  0  0  0  0  0
  -49.8957   -9.9184   28.4669 O   0  0  0  0  0  0  0  0  0  0  0  0
  -49.6498  -11.8567   26.5140 O   0  0  0  0  0  0  0  0  0  0  0  0
  -49.7328  -12.0398   25.1147 C   0  0  1  0  0  0  0  0  0  0  0  0
  -48.9388  -13.1489   24.7254 O   0  0  0  0  0  0  0  0  0  0  0  0
  -48.7670  -13.2058   23.3091 C   0  0  2  0  0  0  0  0  0  0  0  0
  -47.5076  -12.4200   22.9118 C   0  0  1  0  0  0  0  0  0  0  0  0
  -50.0354  -12.7703   22.4993 C   0  0  2  0  0  0  0  0  0  0  0  0
  -51.2923  -13.0238   23.3565 C   0  0  2  0  0  0  0  0  0  0  0  0
  -52.4623  -12.6515   22.6714 O   0  0  0  0  0  0  0  0  0  0  0  0
  -51.2051  -12.3066   24.7266 C   0  0  1  0  0  0  0  0  0  0  0  0
  -51.8338  -13.1103   25.6961 O   0  0  0  0  0  0  0  0  0  0  0  0
  -50.1620  -13.5225   21.2494 N   0  0  0  0  0  0  0  0  0  0  0  0
  -49.7876  -13.0764   20.0921 C   0  0  0  0  0  0  0  0  0  0  0  0
  -50.0617  -13.8414   18.8458 C   0  0  0  0  0  0  0  0  0  0  0  0
  -49.0138  -14.4465   18.1008 C   0  0  0  0  0  0  0  0  0  0  0  0
  -47.6646  -14.1679   18.3398 O   0  0  0  0  0  0  0  0  0  0  0  0
  -49.3339  -15.3341   17.0606 C   0  0  0  0  0  0  0  0  0  0  0  0
  -48.2589  -16.0143   16.2680 C   0  0  1  0  0  0  0  0  0  0  0  0
  -51.4034  -14.0461   18.4235 C   0  0  0  0  0  0  0  0  0  0  0  0
  -51.6514  -14.9147   17.3527 C   0  0  0  0  0  0  0  0  0  0  0  0
  -50.6292  -15.5346   16.7153 N   0  0  0  0  0  0  0  0  0  0  0  0
  -52.5746  -13.3686   19.0967 C   0  0  1  0  0  0  0  0  0  0  0  0
  -53.4767  -12.9133   18.1154 O   0  0  0  0  0  0  0  0  0  0  0  0
  -53.5894  -11.2156   18.2330 P   0  0  2  0  0  5  0  0  0  0  0  0
  -53.9254  -10.5533   16.7082 O   0  0  0  0  0  0  0  0  0  0  0  0
  -52.2914  -10.6440   18.7661 O   0  0  0  0  0  0  0  0  0  0  0  0
  -54.8466  -10.8260   19.2985 O   0  0  0  0  0  0  0  0  0  0  0  0
  -50.0921  -17.8896   18.5994 H   0  0  0  0  0  0  0  0  0  0  0  0
  -48.7542  -15.8918   19.0986 H   0  0  0  0  0  0  0  0  0  0  0  0
  -52.0038  -17.4887   22.3493 H   0  0  0  0  0  0  0  0  0  0  0  0
  -47.7730  -14.7165   21.6288 H   0  0  0  0  0  0  0  0  0  0  0  0
  -49.3115  -13.8947   19.2174 H   0  0  0  0  0  0  0  0  0  0  0  0
  -47.3564  -13.6129   18.6050 H   0  0  0  0  0  0  0  0  0  0  0  0
  -50.2576  -12.0480   20.1281 H   0  0  0  0  0  0  0  0  0  0  0  0
  -48.7276  -10.2901   20.5398 H   0  0  0  0  0  0  0  0  0  0  0  0
  -48.2152  -11.9363   22.4268 H   0  0  0  0  0  0  0  0  0  0  0  0
  -50.3825  -10.5003   22.1556 H   0  0  0  0  0  0  0  0  0  0  0  0
  -51.2756  -12.0267   22.5757 H   0  0  0  0  0  0  0  0  0  0  0  0
  -52.6926  -11.6672   24.7817 H   0  0  0  0  0  0  0  0  0  0  0  0
  -50.6520   -9.2865   28.3870 H   0  0  0  0  0  0  0  0  0  0  0  0
  -49.4136  -11.1121   24.5821 H   0  0  0  0  0  0  0  0  0  0  0  0
  -48.5672  -14.2720   23.0680 H   0  0  0  0  0  0  0  0  0  0  0  0
  -46.6606  -12.7113   23.5690 H   0  0  0  0  0  0  0  0  0  0  0  0
  -47.2096  -12.6526   21.8693 H   0  0  0  0  0  0  0  0  0  0  0  0
  -47.6666  -11.3250   23.0108 H   0  0  0  0  0  0  0  0  0  0  0  0
  -49.9914  -11.6815   22.2630 H   0  0  0  0  0  0  0  0  0  0  0  0
  -51.3493  -14.1225   23.5358 H   0  0  0  0  0  0  0  0  0  0  0  0
  -52.7060  -11.7362   22.9678 H   0  0  0  0  0  0  0  0  0  0  0  0
  -51.7220  -11.3211   24.6609 H   0  0  0  0  0  0  0  0  0  0  0  0
  -52.0839  -12.5161   26.4521 H   0  0  0  0  0  0  0  0  0  0  0  0
  -49.3837  -12.0782   20.0257 H   0  0  0  0  0  0  0  0  0  0  0  0
  -47.2214  -13.2925   18.0948 H   0  0  0  0  0  0  0  0  0  0  0  0
  -47.6112  -16.6218   16.9346 H   0  0  0  0  0  0  0  0  0  0  0  0
  -48.7213  -16.6825   15.5105 H   0  0  0  0  0  0  0  0  0  0  0  0
  -47.6219  -15.2611   15.7574 H   0  0  0  0  0  0  0  0  0  0  0  0
  -52.6627  -15.1091   17.0215 H   0  0  0  0  0  0  0  0  0  0  0  0
  -53.0436  -14.1079   19.7816 H   0  0  0  0  0  0  0  0  0  0  0  0
  -52.2218  -12.5144   19.7182 H   0  0  0  0  0  0  0  0  0  0  0  0
  -53.0444  -10.4585   16.2681 H   0  0  0  0  0  0  0  0  0  0  0  0
  -54.8403   -9.8372   19.3431 H   0  0  0  0  0  0  0  0  0  0  0  0
  1  2  2  0
  2  3  1  0
  3  4  2  0
  2  5  1  0
  5  6  1  0
  6  7  2  0
  4  8  1  0
  6  8  1  0
  9  8  1  0
  9 10  1  0
  9 11  1  0
 11 12  1  0
 11 13  1  0
 13 14  1  0
 10 15  1  0
 13 15  1  0
 15 16  1  0
 16 17  1  0
 18 17  1  6
 18 19  2  0
 18 20  1  0
 18 21  1  0
 22 21  1  6
 22 23  2  0
 22 24  1  0
 22 25  1  0
 26 25  1  0
 26 27  1  0
 27 28  1  0
 28 29  1  0
 28 30  1  0
 30 31  1  0
 31 32  1  0
 31 33  1  0
 26 33  1  0
 33 34  1  0
 30 35  1  0
 35 36  2  0
 36 37  1  0
 37 38  2  0
 38 39  1  0
 38 40  1  0
 40 41  1  0
 37 42  1  0
 42 43  2  0
 40 44  2  0
 43 44  1  0
 42 45  1  0
 45 46  1  0
 47 46  1  6
 47 48  1  0
 47 49  2  0
 47 50  1  0
  3 51  1  0
  4 52  1  0
  5 53  1  0
  9 54  1  1
 11 55  1  6
 12 56  1  0
 13 57  1  6
 14 58  1  0
 15 59  1  1
 16 60  1  6
 16 61  1  0
 20 62  1  0
 24 63  1  0
 26 64  1  6
 28 65  1  6
 29 66  1  1
 29 67  1  0
 29 68  1  0
 30 69  1  6
 31 70  1  1
 32 71  1  0
 33 72  1  6
 34 73  1  0
 36 74  1  0
 39 75  1  0
 41 76  1  1
 41 77  1  0
 41 78  1  0
 43 79  1  0
 45 80  1  1
 45 81  1  0
 48 82  1  0
 50 83  1  0
M  END
