7MGY_ZD1_A_701
     RDKit          3D

 23 24  0  0  0  0  0  0  0  0999 V2000
   26.6619  -30.1961  311.6060 C   0  0  1  0  0  0  0  0  0  0  0  0
   25.3509  -29.9704  312.3096 C   0  0  0  0  0  0  0  0  0  0  0  0
   24.2420  -29.4828  311.7422 C   0  0  0  0  0  0  0  0  0  0  0  0
   22.8699  -29.5979  312.4011 C   0  0  0  0  0  0  0  0  0  0  0  0
   24.1869  -29.0692  310.2926 C   0  0  2  0  0  0  0  0  0  0  0  0
   23.0586  -27.3277  309.0361 C   0  0  1  0  0  0  0  0  0  0  0  0
   23.3735  -25.8998  308.5229 C   0  0  1  0  0  0  0  0  0  0  0  0
   22.8447  -24.8178  309.5244 C   0  0  2  0  0  0  0  0  0  0  0  0
   21.3204  -25.0384  309.7727 C   0  0  1  0  0  0  0  0  0  0  0  0
   21.1943  -26.4817  310.3666 C   0  0  1  0  0  0  0  0  0  0  0  0
   19.6820  -26.8654  310.6824 C   0  0  0  0  0  0  0  0  0  0  0  0
   25.5322  -29.3694  309.4934 C   0  0  1  0  0  0  0  0  0  0  0  0
   26.7631  -29.2527  310.3871 C   0  0  1  0  0  0  0  0  0  0  0  0
   27.7203  -29.9245  312.5657 N   0  0  0  0  0  0  0  0  0  0  0  0
   22.3939  -30.9162  312.2632 O   0  0  0  0  0  0  0  0  0  0  0  0
   23.8945  -27.6712  310.1521 O   0  0  0  0  0  0  0  0  0  0  0  0
   24.7807  -25.7952  308.4536 O   0  0  0  0  0  0  0  0  0  0  0  0
   22.9862  -23.5495  308.9286 O   0  0  0  0  0  0  0  0  0  0  0  0
   20.8996  -24.0798  310.7373 O   0  0  0  0  0  0  0  0  0  0  0  0
   18.8996  -26.3602  309.6100 O   0  0  0  0  0  0  0  0  0  0  0  0
   21.7059  -27.4262  309.4207 O   0  0  0  0  0  0  0  0  0  0  0  0
   25.4825  -30.7312  309.1528 O   0  0  0  0  0  0  0  0  0  0  0  0
   26.8319  -27.8965  310.7631 O   0  0  0  0  0  0  0  0  0  0  0  0
  1  2  1  0
  2  3  2  0
  3  4  1  0
  3  5  1  0
  6  7  1  0
  7  8  1  0
  8  9  1  0
  9 10  1  0
 10 11  1  6
  5 12  1  0
 12 13  1  0
  1 13  1  0
  1 14  1  1
  4 15  1  0
  6 16  1  1
  5 16  1  1
  7 17  1  1
  8 18  1  6
  9 19  1  1
 11 20  1  0
 10 21  1  0
  6 21  1  0
 12 22  1  1
 13 23  1  1
M  END
