7OKC_VFE_A_1001
     RDKit          3D

 29 31  0  0  0  0  0  0  0  0999 V2000
   29.3618   10.5048   -2.9958 C   0  0  0  0  0  0  0  0  0  0  0  0
   30.6165   10.0613   -3.3509 C   0  0  0  0  0  0  0  0  0  0  0  0
   24.6749   16.2336   -0.9389 C   0  0  0  0  0  0  0  0  0  0  0  0
   26.6731   17.2100   -1.6884 C   0  0  0  0  0  0  0  0  0  0  0  0
   24.1458   16.2796   -2.2158 C   0  0  0  0  0  0  0  0  0  0  0  0
   26.1467   17.2591   -2.9736 C   0  0  0  0  0  0  0  0  0  0  0  0
   29.2718   11.4529   -1.9971 C   0  0  0  0  0  0  0  0  0  0  0  0
   31.7505   10.5256   -2.7528 C   0  0  0  0  0  0  0  0  0  0  0  0
   22.9694   16.6433   -6.2469 C   0  0  0  0  0  0  0  0  0  0  0  0
   24.9709   17.3253   -5.7070 C   0  0  0  0  0  0  0  0  0  0  0  0
   25.9338   16.6854   -0.6214 C   0  0  0  0  0  0  0  0  0  0  0  0
   24.8799   16.7971   -3.2589 C   0  0  0  0  0  0  0  0  0  0  0  0
   30.3912   11.9506   -1.3648 C   0  0  0  0  0  0  0  0  0  0  0  0
   31.6432   11.4734   -1.7558 C   0  0  0  0  0  0  0  0  0  0  0  0
   26.6732   15.2844    3.5295 C   0  0  0  0  0  0  0  0  0  0  0  0
   28.3063   14.8540    0.5928 C   0  0  0  0  0  0  0  0  0  0  0  0
   26.5776   15.3730    5.9931 C   0  0  0  0  0  0  0  0  0  0  0  0
   26.5286   16.6575    0.7253 C   0  0  0  0  0  0  0  0  0  0  0  0
   26.4943   14.6664    2.2134 C   0  0  0  0  0  0  0  0  0  0  0  0
   28.5509   13.4432    0.3342 C   0  0  0  0  0  0  0  0  0  0  0  0
   24.0932   17.1816   -6.7154 N   0  0  0  0  0  0  0  0  0  0  0  0
   23.1668   16.4539   -4.9183 N   0  0  0  0  0  0  0  0  0  0  0  0
   24.3815   16.8673   -4.5884 N   0  0  0  0  0  0  0  0  0  0  0  0
   26.1822   14.7365    4.7466 N   0  0  0  0  0  0  0  0  0  0  0  0
   27.1291   15.4334    1.1275 N   0  0  0  0  0  0  0  0  0  0  0  0
   27.3128   16.3871    3.5759 O   0  0  0  0  0  0  0  0  0  0  0  0
   29.2461   15.6769    0.3137 O   0  0  0  0  0  0  0  0  0  0  0  0
   30.3189   13.1763   -0.0694 S   0  0  0  0  0  0  0  0  0  0  0  0
   33.0867   12.0803   -0.9776 Cl  0  0  0  0  0  0  0  0  0  0  0  0
  1  2  2  0
  3  5  2  0
  4  6  1  0
  1  7  1  0
  2  8  1  0
  3 11  1  0
  4 11  2  0
  5 12  1  0
  6 12  2  0
  7 13  2  0
  8 14  2  0
 13 14  1  0
 11 18  1  0
 15 19  1  0
 16 20  1  0
  9 21  1  0
 10 21  2  0
  9 22  2  0
 22 23  1  0
 10 23  1  0
 12 23  1  0
 17 24  1  1
 15 24  1  0
 19 25  1  1
 18 25  1  6
 16 25  1  0
 15 26  2  0
 16 27  2  0
 20 28  1  1
 13 28  1  0
 14 29  1  0
M  END
$$$$
