7RKW_5TV_A_502
     RDKit          3D

 38 40  0  0  0  0  0  0  0  0999 V2000
    0.6131   -0.7528    0.5915 C   0  0  0  0  0  0  0  0  0  0  0  0
   -2.2205   -0.0174    1.1331 C   0  0  0  0  0  0  0  0  0  0  0  0
    2.0912   -4.6347    0.9095 F   0  0  0  0  0  0  0  0  0  0  0  0
    1.6110   -3.3712    0.8050 C   0  0  0  0  0  0  0  0  0  0  0  0
    0.2994   -3.1554    0.3738 C   0  0  0  0  0  0  0  0  0  0  0  0
   -0.1970   -1.8530    0.2625 C   0  0  0  0  0  0  0  0  0  0  0  0
    1.9373   -0.9804    1.0130 C   0  0  0  0  0  0  0  0  0  0  0  0
    2.4296   -2.2841    1.1220 C   0  0  0  0  0  0  0  0  0  0  0  0
    0.0736    0.6541    0.4275 C   0  0  1  0  0  0  0  0  0  0  0  0
   -1.3463    0.6498    0.2656 O   0  0  0  0  0  0  0  0  0  0  0  0
   -3.4512    0.2624    1.1294 O   0  0  0  0  0  0  0  0  0  0  0  0
   -1.6964   -1.0538    2.0487 C   0  0  0  0  0  0  0  0  0  0  0  0
   -2.2246   -2.3569    2.0198 C   0  0  0  0  0  0  0  0  0  0  0  0
   -1.7350   -3.3393    2.8874 C   0  0  0  0  0  0  0  0  0  0  0  0
   -2.4037   -4.9605    2.8421 Cl  0  0  0  0  0  0  0  0  0  0  0  0
   -0.7147   -3.0297    3.7912 C   0  0  0  0  0  0  0  0  0  0  0  0
   -0.1827   -1.7378    3.8297 C   0  0  0  0  0  0  0  0  0  0  0  0
   -0.6704   -0.7528    2.9636 C   0  0  0  0  0  0  0  0  0  0  0  0
    1.0972   -1.3512    4.9656 Cl  0  0  0  0  0  0  0  0  0  0  0  0
    0.4553    1.5374    1.6256 C   0  0  0  0  0  0  0  0  0  0  0  0
   -0.0102    0.9661    2.8893 N   0  0  0  0  0  4  0  0  0  0  0  0
   -1.1817    1.2088    3.5078 C   0  0  0  0  0  0  0  0  0  0  0  0
   -1.3253    0.4874    4.6391 N   0  0  0  0  0  0  0  0  0  0  0  0
   -0.1887   -0.2355    4.7207 C   0  0  0  0  0  0  0  0  0  0  0  0
    0.6221    0.0551    3.6468 C   0  0  0  0  0  0  0  0  0  0  0  0
   -0.3329   -3.9969    0.1216 H   0  0  0  0  0  0  0  0  0  0  0  0
   -1.2122   -1.7019   -0.0831 H   0  0  0  0  0  0  0  0  0  0  0  0
    2.5918   -0.1507    1.2489 H   0  0  0  0  0  0  0  0  0  0  0  0
    3.4482   -2.4502    1.4479 H   0  0  0  0  0  0  0  0  0  0  0  0
    0.5262    1.1168   -0.4786 H   0  0  0  0  0  0  0  0  0  0  0  0
   -3.0172   -2.6144    1.3291 H   0  0  0  0  0  0  0  0  0  0  0  0
   -0.3368   -3.7909    4.4621 H   0  0  0  0  0  0  0  0  0  0  0  0
   -0.2469    0.2431    3.0073 H   0  0  0  0  0  0  0  0  0  0  0  0
    1.5593    1.6711    1.6566 H   0  0  0  0  0  0  0  0  0  0  0  0
    0.0064    2.5457    1.4917 H   0  0  0  0  0  0  0  0  0  0  0  0
   -1.9284    1.9010    3.1408 H   0  0  0  0  0  0  0  0  0  0  0  0
    0.0319   -0.9368    5.5140 H   0  0  0  0  0  0  0  0  0  0  0  0
    1.5907   -0.3757    3.4280 H   0  0  0  0  0  0  0  0  0  0  0  0
  3  4  1  0
  4  5  4  0
  5  6  4  0
  1  6  4  0
  1  7  4  0
  4  8  4  0
  7  8  4  0
  1  9  1  0
  9 10  1  0
  2 10  1  0
  2 11  2  0
  2 12  1  0
 12 13  4  0
 13 14  4  0
 14 15  1  0
 14 16  4  0
 16 17  4  0
 12 18  4  0
 17 18  4  0
 17 19  1  0
  9 20  1  0
 20 21  1  0
 21 22  4  0
 22 23  4  0
 23 24  4  0
 21 25  4  0
 24 25  4  0
  5 26  1  0
  6 27  1  0
  7 28  1  0
  8 29  1  0
  9 30  1  1
 13 31  1  0
 16 32  1  0
 18 33  1  0
 20 34  1  0
 20 35  1  0
 22 36  1  0
 24 37  1  0
 25 38  1  0
M  CHG  1  21   1
M  END
