6TW5_9M2_CCC_501
     RDKit          3D

 31 34  0  0  0  0  0  0  0  0999 V2000
   22.1617   40.7627   63.1286 C   0  0  0  0  0  0  0  0  0  0  0  0
   26.0082   42.2505   64.1166 C   0  0  0  0  0  0  0  0  0  0  0  0
   27.3452   42.5547   64.1961 C   0  0  0  0  0  0  0  0  0  0  0  0
   23.9116   42.3976   62.8440 C   0  0  0  0  0  0  0  0  0  0  0  0
   23.4907   41.1112   63.1960 C   0  0  0  0  0  0  0  0  0  0  0  0
   25.3354   42.6550   62.9881 C   0  0  0  0  0  0  0  0  0  0  0  0
   25.9505   43.3443   61.9496 C   0  0  0  0  0  0  0  0  0  0  0  0
   29.4133   42.7965   64.7727 N   0  0  0  0  0  0  0  0  0  0  0  0
   27.3144   43.6544   62.0304 C   0  0  0  0  0  0  0  0  0  0  0  0
   27.9695   43.2402   63.1713 C   0  0  0  0  0  0  0  0  0  0  0  0
   19.9185   41.3845   62.6305 F   0  0  0  0  0  0  0  0  0  0  0  0
   21.2563   41.6943   62.7104 C   0  0  0  0  0  0  0  0  0  0  0  0
   21.6877   42.9763   62.3602 C   0  0  0  0  0  0  0  0  0  0  0  0
   23.0044   43.3560   62.4168 C   0  0  0  0  0  0  0  0  0  0  0  0
   29.2530   43.3729   63.5627 N   0  0  0  0  0  0  0  0  0  0  0  0
   28.2573   42.2818   65.1921 C   0  0  0  0  0  0  0  0  0  0  0  0
   27.9424   41.5471   66.4448 C   0  0  0  0  0  0  0  0  0  0  0  0
   28.4882   42.0852   67.6088 N   0  0  0  0  0  0  0  0  0  0  0  0
   29.6513   41.4823   68.1468 C   0  0  0  0  0  0  0  0  0  0  0  0
   28.0034   43.2523   68.1863 C   0  0  0  0  0  0  0  0  0  0  0  0
   23.5033   44.5877   62.0876 O   0  0  0  0  0  0  0  0  0  0  0  0
   23.1130   45.4583   61.0853 C   0  0  0  0  0  0  0  0  0  0  0  0
   23.1042   46.9125   61.4843 C   0  0  0  0  0  0  0  0  0  0  0  0
   24.1667   47.2036   62.4929 C   0  0  0  0  0  0  0  0  0  0  0  0
   24.0532   47.6797   63.7762 C   0  0  0  0  0  0  0  0  0  0  0  0
   22.7818   47.9960   64.4721 C   0  0  0  0  0  0  0  0  0  0  0  0
   25.3253   47.7750   64.2254 N   0  0  0  0  0  0  0  0  0  0  0  0
   26.1930   47.3910   63.3058 N   0  0  0  0  0  0  0  0  0  0  0  0
   27.6402   47.3416   63.3686 C   0  0  0  0  0  0  0  0  0  0  0  0
   25.5151   47.0194   62.1924 C   0  0  0  0  0  0  0  0  0  0  0  0
   26.1055   46.5152   60.9135 C   0  0  0  0  0  0  0  0  0  0  0  0
  2  3  1  0
  1  5  2  0
  4  5  1  0
  4  6  1  0
  2  6  2  0
  6  7  1  0
  7  9  2  0
  3 10  1  0
  9 10  1  0
 11 12  1  0
  1 12  1  0
 12 13  2  0
 13 14  1  0
  4 14  2  0
 10 15  2  0
  8 15  1  0
  3 16  2  0
  8 16  1  0
 16 17  1  0
 17 18  1  6
 19 18  1  1
 20 18  1  6
 14 21  1  0
 22 21  1  1
 22 23  1  0
 23 24  1  1
 24 25  1  0
 26 25  1  6
 25 27  2  0
 27 28  1  0
 29 28  1  1
 24 30  2  0
 28 30  1  0
 31 30  1  1
M  END
$$$$
