6YR2_T1C_BBB_1001
     RDKit          3D

 42 45  0  0  0  0  0  0  0  0999 V2000
   47.0103    6.0705   21.1214 C   0  0  0  0  0  0  0  0  0  0  0  0
   48.5345    6.3121   21.2663 C   0  0  1  0  0  0  0  0  0  0  0  0
   49.0590    6.6634   22.6857 C   0  0  0  0  0  0  0  0  0  0  0  0
   49.2413    4.9966   20.8519 C   0  0  0  0  0  0  0  0  0  0  0  0
   48.9146    7.4801   20.3737 N   0  0  0  0  0  0  0  0  0  0  0  0
   48.2191    8.7985   20.5366 C   0  0  0  0  0  0  0  0  0  0  0  0
   48.6466    9.6405   19.3755 C   0  0  0  0  0  0  0  0  0  0  0  0
   49.1380    9.1203   18.4279 O   0  0  0  0  0  0  0  0  0  0  0  0
   48.4805   10.8923   19.4205 N   0  0  0  0  0  0  0  0  0  0  0  0
   47.8322   11.7340   18.6040 C   0  0  0  0  0  0  0  0  0  0  0  0
   46.9169   11.4559   17.5890 C   0  0  0  0  0  0  0  0  0  0  0  0
   46.2723   12.5184   16.8976 C   0  0  0  0  0  0  0  0  0  0  0  0
   45.3273   12.3461   15.8032 N   0  0  1  0  0  0  0  0  0  0  0  0
   46.2311   12.0716   14.6640 C   0  0  0  0  0  0  0  0  0  0  0  0
   44.3842   11.2506   15.7919 C   0  0  0  0  0  0  0  0  0  0  0  0
   46.6515   13.8582   17.2156 C   0  0  0  0  0  0  0  0  0  0  0  0
   45.9502   15.0494   16.5575 C   0  0  0  0  0  0  0  0  0  0  0  0
   46.8539   16.2545   16.4561 C   0  0  1  0  0  0  0  0  0  0  0  0
   46.1000   17.4201   15.7750 C   0  0  0  0  0  0  0  0  0  0  0  0
   47.0612   18.5851   15.8600 C   0  0  1  0  0  0  0  0  0  0  0  0
   46.4425   19.6705   15.0224 C   0  0  2  0  0  0  0  0  0  0  0  0
   47.3960   20.3044   14.0641 N   0  0  1  0  0  0  0  0  0  0  0  0
   48.4452   21.2298   14.5287 C   0  0  0  0  0  0  0  0  0  0  0  0
   48.0739   19.2357   13.3355 C   0  0  0  0  0  0  0  0  0  0  0  0
   45.7639   20.7188   15.8196 C   0  0  0  0  0  0  0  0  0  0  0  0
   45.6092   21.7654   15.0904 O   0  0  0  0  0  0  0  0  0  0  0  0
   45.3855   20.6455   17.0628 C   0  0  0  0  0  0  0  0  0  0  0  0
   44.3529   21.5070   17.7009 C   0  0  0  0  0  0  0  0  0  0  0  0
   44.2592   21.5405   18.9641 O   0  0  0  0  0  0  0  0  0  0  0  0
   43.5228   22.2053   17.0205 N   0  0  0  0  0  0  0  0  0  0  0  0
   45.9682   19.6668   17.8189 C   0  0  0  0  0  0  0  0  0  0  0  0
   45.5187   19.3022   18.9268 O   0  0  0  0  0  0  0  0  0  0  0  0
   47.2678   19.0251   17.2871 C   0  0  2  0  0  0  0  0  0  0  0  0
   48.3057   19.9970   17.3644 O   0  0  0  0  0  0  0  0  0  0  0  0
   47.6950   17.8462   18.1224 C   0  0  0  0  0  0  0  0  0  0  0  0
   48.3795   18.1795   19.1862 O   0  0  0  0  0  0  0  0  0  0  0  0
   47.4679   16.5509   17.8081 C   0  0  0  0  0  0  0  0  0  0  0  0
   47.9023   15.5138   18.6035 C   0  0  0  0  0  0  0  0  0  0  0  0
   48.5567   15.5998   19.6612 O   0  0  0  0  0  0  0  0  0  0  0  0
   47.5368   14.1213   18.2525 C   0  0  0  0  0  0  0  0  0  0  0  0
   48.1244   13.0442   18.9191 C   0  0  0  0  0  0  0  0  0  0  0  0
   48.9688   13.2187   19.9348 O   0  0  0  0  0  0  0  0  0  0  0  0
  2  1  1  1
  2  3  1  0
  2  4  1  0
  2  5  1  0
  5  6  1  0
  6  7  1  0
  7  8  2  0
  7  9  1  0
  9 10  1  0
 10 11  2  0
 11 12  1  0
 12 13  1  0
 13 14  1  6
 13 15  1  0
 12 16  2  0
 16 17  1  0
 18 17  1  1
 18 19  1  0
 20 19  1  1
 20 21  1  0
 21 22  1  0
 22 23  1  1
 22 24  1  0
 21 25  1  1
 25 26  1  0
 25 27  2  0
 27 28  1  0
 28 29  2  0
 28 30  1  0
 27 31  1  0
 31 32  2  0
 20 33  1  0
 31 33  1  0
 33 34  1  6
 33 35  1  0
 35 36  1  0
 18 37  1  0
 35 37  2  0
 37 38  1  0
 38 39  2  0
 16 40  1  0
 38 40  1  0
 10 41  1  0
 40 41  2  0
 41 42  1  0
M  CHG  2  13   1  22   1
M  END
