1OWE_675_A_1001
     RDKit          3D

 22 24  0  0  0  0  0  0  0  0999 V2000
   18.3597   21.0969   34.2149 N   0  0  0  0  0  0  0  0  0  0  0  0
   18.1338   19.8751   33.8527 C   0  0  0  0  0  0  0  0  0  0  0  0
   16.8106   19.4115   33.5677 N   0  0  0  0  0  0  0  0  0  0  0  0
   19.2888   18.9872   33.7470 C   0  0  0  0  0  0  0  0  0  0  0  0
   20.5220   19.3737   34.2749 C   0  0  0  0  0  0  0  0  0  0  0  0
   21.6340   18.5610   34.1933 C   0  0  0  0  0  0  0  0  0  0  0  0
   21.5629   17.3253   33.5802 C   0  0  0  0  0  0  0  0  0  0  0  0
   22.6814   16.5230   33.5054 C   0  0  0  0  0  0  0  0  0  0  0  0
   22.5524   15.2990   32.8819 C   0  0  0  0  0  0  0  0  0  0  0  0
   21.3416   14.9299   32.3685 C   0  0  0  0  0  0  0  0  0  0  0  0
   20.2041   15.7338   32.4387 C   0  0  0  0  0  0  0  0  0  0  0  0
   20.3393   16.9563   33.0633 C   0  0  0  0  0  0  0  0  0  0  0  0
   19.2248   17.7648   33.1422 C   0  0  0  0  0  0  0  0  0  0  0  0
   23.7373   14.4551   32.8058 C   0  0  0  0  0  0  0  0  0  0  0  0
   24.7980   14.8534   33.3548 O   0  0  0  0  0  0  0  0  0  0  0  0
   23.7587   13.2018   32.1420 N   0  0  0  0  0  0  0  0  0  0  0  0
   25.0027   12.4990   32.1386 C   0  0  0  0  0  0  0  0  0  0  0  0
   25.3435   11.6490   33.1803 C   0  0  0  0  0  0  0  0  0  0  0  0
   26.5433   10.9696   33.1793 C   0  0  0  0  0  0  0  0  0  0  0  0
   27.4362   11.1278   32.1260 C   0  0  0  0  0  0  0  0  0  0  0  0
   27.0848   11.9836   31.0847 C   0  0  0  0  0  0  0  0  0  0  0  0
   25.8798   12.6703   31.0788 C   0  0  0  0  0  0  0  0  0  0  0  0
  1  2  2  0
  2  3  1  0
  2  4  1  0
  4  5  2  0
  5  6  1  0
  6  7  2  0
  7  8  1  0
  8  9  2  0
  9 10  1  0
 10 11  2  0
  7 12  1  0
 11 12  1  0
  4 13  1  0
 12 13  2  0
  9 14  1  0
 14 15  2  0
 14 16  1  0
 16 17  1  0
 17 18  2  0
 18 19  1  0
 19 20  2  0
 20 21  1  0
 17 22  1  0
 21 22  2  0
M  END
$$$$
