1OWE_675_A_1001
     RDKit          3D

 22 24  0  0  0  0  0  0  0  0999 V2000
   12.6437    4.5189   38.4390 N   0  0  0  0  0  0  0  0  0  0  0  0
   13.9024    4.6006   38.1493 C   0  0  0  0  0  0  0  0  0  0  0  0
   14.4205    5.6762   37.3607 N   0  0  0  0  0  0  0  0  0  0  0  0
   14.7739    3.5466   38.6622 C   0  0  0  0  0  0  0  0  0  0  0  0
   16.1521    3.6093   38.4486 C   0  0  0  0  0  0  0  0  0  0  0  0
   17.0052    2.6320   38.9185 C   0  0  0  0  0  0  0  0  0  0  0  0
   16.5187    1.5481   39.6230 C   0  0  0  0  0  0  0  0  0  0  0  0
   17.3819    0.5786   40.0869 C   0  0  0  0  0  0  0  0  0  0  0  0
   16.8407   -0.4817   40.7844 C   0  0  0  0  0  0  0  0  0  0  0  0
   15.4911   -0.5340   40.9882 C   0  0  0  0  0  0  0  0  0  0  0  0
   14.6092    0.4412   40.5232 C   0  0  0  0  0  0  0  0  0  0  0  0
   15.1562    1.4988   39.8266 C   0  0  0  0  0  0  0  0  0  0  0  0
   14.2990    2.4729   39.3591 C   0  0  0  0  0  0  0  0  0  0  0  0
   17.7573   -1.5032   41.2725 C   0  0  0  0  0  0  0  0  0  0  0  0
   17.3128   -2.3948   42.0422 O   0  0  0  0  0  0  0  0  0  0  0  0
   19.1316   -1.5460   40.9242 N   0  0  0  0  0  0  0  0  0  0  0  0
   19.9126   -2.5829   41.5212 C   0  0  0  0  0  0  0  0  0  0  0  0
   20.0553   -3.8148   40.8999 C   0  0  0  0  0  0  0  0  0  0  0  0
   20.8084   -4.8168   41.4740 C   0  0  0  0  0  0  0  0  0  0  0  0
   21.4409   -4.6058   42.6935 C   0  0  0  0  0  0  0  0  0  0  0  0
   21.2915   -3.3654   43.3095 C   0  0  0  0  0  0  0  0  0  0  0  0
   20.5355   -2.3527   42.7381 C   0  0  0  0  0  0  0  0  0  0  0  0
  1  2  2  0
  2  3  1  0
  2  4  1  0
  4  5  2  0
  5  6  1  0
  6  7  2  0
  7  8  1  0
  8  9  2  0
  9 10  1  0
 10 11  2  0
  7 12  1  0
 11 12  1  0
  4 13  1  0
 12 13  2  0
  9 14  1  0
 14 15  2  0
 14 16  1  0
 16 17  1  0
 17 18  2  0
 18 19  1  0
 19 20  2  0
 20 21  1  0
 17 22  1  0
 21 22  2  0
M  END
$$$$
