1OWE_675_A_1001
     RDKit          3D

 22 24  0  0  0  0  0  0  0  0999 V2000
   16.6112   19.5739   34.1607 N   0  0  0  0  0  0  0  0  0  0  0  0
   17.7729   20.1254   34.3065 C   0  0  0  0  0  0  0  0  0  0  0  0
   17.9077   21.4880   34.7217 N   0  0  0  0  0  0  0  0  0  0  0  0
   18.9433   19.2968   34.0287 C   0  0  0  0  0  0  0  0  0  0  0  0
   20.2177   19.7389   34.3883 C   0  0  0  0  0  0  0  0  0  0  0  0
   21.3453   18.9830   34.1416 C   0  0  0  0  0  0  0  0  0  0  0  0
   21.2492   17.7511   33.5243 C   0  0  0  0  0  0  0  0  0  0  0  0
   22.3837   17.0058   33.2837 C   0  0  0  0  0  0  0  0  0  0  0  0
   22.2284   15.7828   32.6642 C   0  0  0  0  0  0  0  0  0  0  0  0
   20.9773   15.3591   32.3163 C   0  0  0  0  0  0  0  0  0  0  0  0
   19.8234   16.1050   32.5551 C   0  0  0  0  0  0  0  0  0  0  0  0
   19.9851   17.3268   33.1747 C   0  0  0  0  0  0  0  0  0  0  0  0
   18.8548   18.0784   33.4189 C   0  0  0  0  0  0  0  0  0  0  0  0
   23.4304   14.9994   32.4124 C   0  0  0  0  0  0  0  0  0  0  0  0
   24.5302   15.4222   32.8560 O   0  0  0  0  0  0  0  0  0  0  0  0
   23.4265   13.7788   31.6900 N   0  0  0  0  0  0  0  0  0  0  0  0
   24.6890   13.1333   31.5145 C   0  0  0  0  0  0  0  0  0  0  0  0
   25.2671   12.4069   32.5450 C   0  0  0  0  0  0  0  0  0  0  0  0
   26.4853   11.7832   32.3781 C   0  0  0  0  0  0  0  0  0  0  0  0
   27.1575   11.8736   31.1649 C   0  0  0  0  0  0  0  0  0  0  0  0
   26.5687   12.6053   30.1362 C   0  0  0  0  0  0  0  0  0  0  0  0
   25.3437   13.2355   30.2968 C   0  0  0  0  0  0  0  0  0  0  0  0
  1  2  2  0
  2  3  1  0
  2  4  1  0
  4  5  2  0
  5  6  1  0
  6  7  2  0
  7  8  1  0
  8  9  2  0
  9 10  1  0
 10 11  2  0
  7 12  1  0
 11 12  1  0
  4 13  1  0
 12 13  2  0
  9 14  1  0
 14 15  2  0
 14 16  1  0
 16 17  1  0
 17 18  2  0
 18 19  1  0
 19 20  2  0
 20 21  1  0
 17 22  1  0
 21 22  2  0
M  END
$$$$
