1OWE_675_A_1001
     RDKit          3D

 22 24  0  0  0  0  0  0  0  0999 V2000
   16.9398   11.0157    8.0675 N   0  0  0  0  0  0  0  0  0  0  0  0
   18.0879   10.9081    8.6551 C   0  0  0  0  0  0  0  0  0  0  0  0
   18.9669   12.0288    8.7912 N   0  0  0  0  0  0  0  0  0  0  0  0
   18.4495    9.5917    9.1745 C   0  0  0  0  0  0  0  0  0  0  0  0
   18.7571    8.5508    8.2966 C   0  0  0  0  0  0  0  0  0  0  0  0
   19.1029    7.2950    8.7516 C   0  0  0  0  0  0  0  0  0  0  0  0
   19.1567    7.0235   10.1049 C   0  0  0  0  0  0  0  0  0  0  0  0
   19.5036    5.7645   10.5462 C   0  0  0  0  0  0  0  0  0  0  0  0
   19.5412    5.5500   11.9086 C   0  0  0  0  0  0  0  0  0  0  0  0
   19.2387    6.5748   12.7595 C   0  0  0  0  0  0  0  0  0  0  0  0
   18.8866    7.8519   12.3236 C   0  0  0  0  0  0  0  0  0  0  0  0
   18.8507    8.0602   10.9604 C   0  0  0  0  0  0  0  0  0  0  0  0
   18.5045    9.3173   10.5109 C   0  0  0  0  0  0  0  0  0  0  0  0
   19.9085    4.2179   12.3695 C   0  0  0  0  0  0  0  0  0  0  0  0
   19.9111    3.9869   13.6072 O   0  0  0  0  0  0  0  0  0  0  0  0
   20.2652    3.1619   11.4923 N   0  0  0  0  0  0  0  0  0  0  0  0
   20.5329    1.8929   12.0918 C   0  0  0  0  0  0  0  0  0  0  0  0
   19.5223    0.9582   12.2622 C   0  0  0  0  0  0  0  0  0  0  0  0
   19.7781   -0.2671   12.8404 C   0  0  0  0  0  0  0  0  0  0  0  0
   21.0626   -0.5864   13.2644 C   0  0  0  0  0  0  0  0  0  0  0  0
   22.0706    0.3589   13.0889 C   0  0  0  0  0  0  0  0  0  0  0  0
   21.8208    1.5934   12.5082 C   0  0  0  0  0  0  0  0  0  0  0  0
  1  2  2  0
  2  3  1  0
  2  4  1  0
  4  5  2  0
  5  6  1  0
  6  7  2  0
  7  8  1  0
  8  9  2  0
  9 10  1  0
 10 11  2  0
  7 12  1  0
 11 12  1  0
  4 13  1  0
 12 13  2  0
  9 14  1  0
 14 15  2  0
 14 16  1  0
 16 17  1  0
 17 18  2  0
 18 19  1  0
 19 20  2  0
 20 21  1  0
 17 22  1  0
 21 22  2  0
M  END
$$$$
