1OWE_675_A_1001
     RDKit          3D

 22 24  0  0  0  0  0  0  0  0999 V2000
   14.4198  -10.5275   42.7911 N   0  0  0  0  0  0  0  0  0  0  0  0
   15.6624  -10.4783   43.1496 C   0  0  0  0  0  0  0  0  0  0  0  0
   16.3521  -11.6402   43.6202 N   0  0  0  0  0  0  0  0  0  0  0  0
   16.3327   -9.1841   43.0535 C   0  0  0  0  0  0  0  0  0  0  0  0
   15.6409   -8.0688   42.5775 C   0  0  0  0  0  0  0  0  0  0  0  0
   16.2418   -6.8312   42.4732 C   0  0  0  0  0  0  0  0  0  0  0  0
   17.5615   -6.6531   42.8402 C   0  0  0  0  0  0  0  0  0  0  0  0
   18.1499   -5.4112   42.7311 C   0  0  0  0  0  0  0  0  0  0  0  0
   19.4706   -5.2914   43.1121 C   0  0  0  0  0  0  0  0  0  0  0  0
   20.1388   -6.3885   43.5766 C   0  0  0  0  0  0  0  0  0  0  0  0
   19.5531   -7.6490   43.6909 C   0  0  0  0  0  0  0  0  0  0  0  0
   18.2326   -7.7625   43.3084 C   0  0  0  0  0  0  0  0  0  0  0  0
   17.6367   -9.0017   43.4146 C   0  0  0  0  0  0  0  0  0  0  0  0
   20.0874   -3.9770   42.9949 C   0  0  0  0  0  0  0  0  0  0  0  0
   21.2916   -3.8429   43.3370 O   0  0  0  0  0  0  0  0  0  0  0  0
   19.3988   -2.8345   42.5129 N   0  0  0  0  0  0  0  0  0  0  0  0
   20.1175   -1.5997   42.5256 C   0  0  0  0  0  0  0  0  0  0  0  0
   19.9357   -0.6802   43.5480 C   0  0  0  0  0  0  0  0  0  0  0  0
   20.6281    0.5120   43.5625 C   0  0  0  0  0  0  0  0  0  0  0  0
   21.5256    0.8125   42.5447 C   0  0  0  0  0  0  0  0  0  0  0  0
   21.7011   -0.1173   41.5225 C   0  0  0  0  0  0  0  0  0  0  0  0
   21.0082   -1.3186   41.5013 C   0  0  0  0  0  0  0  0  0  0  0  0
  1  2  2  0
  2  3  1  0
  2  4  1  0
  4  5  2  0
  5  6  1  0
  6  7  2  0
  7  8  1  0
  8  9  2  0
  9 10  1  0
 10 11  2  0
  7 12  1  0
 11 12  1  0
  4 13  1  0
 12 13  2  0
  9 14  1  0
 14 15  2  0
 14 16  1  0
 16 17  1  0
 17 18  2  0
 18 19  1  0
 19 20  2  0
 20 21  1  0
 17 22  1  0
 21 22  2  0
M  END
$$$$
