1OWE_675_A_1001
     RDKit          3D

 22 24  0  0  0  0  0  0  0  0999 V2000
   18.1488   21.2702   34.4132 N   0  0  0  0  0  0  0  0  0  0  0  0
   17.9442   20.0193   34.1517 C   0  0  0  0  0  0  0  0  0  0  0  0
   16.6218   19.4841   34.0425 N   0  0  0  0  0  0  0  0  0  0  0  0
   19.1225   19.1749   33.9724 C   0  0  0  0  0  0  0  0  0  0  0  0
   20.3859   19.6469   34.3329 C   0  0  0  0  0  0  0  0  0  0  0  0
   21.5204   18.8773   34.1777 C   0  0  0  0  0  0  0  0  0  0  0  0
   21.4427   17.6010   33.6551 C   0  0  0  0  0  0  0  0  0  0  0  0
   22.5840   16.8425   33.5053 C   0  0  0  0  0  0  0  0  0  0  0  0
   22.4471   15.5748   32.9782 C   0  0  0  0  0  0  0  0  0  0  0  0
   21.2067   15.1220   32.6286 C   0  0  0  0  0  0  0  0  0  0  0  0
   20.0460   15.8810   32.7759 C   0  0  0  0  0  0  0  0  0  0  0  0
   20.1893   17.1476   33.3034 C   0  0  0  0  0  0  0  0  0  0  0  0
   19.0521   17.9128   33.4565 C   0  0  0  0  0  0  0  0  0  0  0  0
   23.6561   14.7775   32.8222 C   0  0  0  0  0  0  0  0  0  0  0  0
   23.5616   13.6323   32.3075 O   0  0  0  0  0  0  0  0  0  0  0  0
   24.9410   15.2261   33.2217 N   0  0  0  0  0  0  0  0  0  0  0  0
   26.0373   14.3482   32.9591 C   0  0  0  0  0  0  0  0  0  0  0  0
   27.0011   14.6744   32.0164 C   0  0  0  0  0  0  0  0  0  0  0  0
   28.0599   13.8289   31.7613 C   0  0  0  0  0  0  0  0  0  0  0  0
   28.1781   12.6277   32.4503 C   0  0  0  0  0  0  0  0  0  0  0  0
   27.2051   12.3092   33.3948 C   0  0  0  0  0  0  0  0  0  0  0  0
   26.1373   13.1546   33.6569 C   0  0  0  0  0  0  0  0  0  0  0  0
  1  2  2  0
  2  3  1  0
  2  4  1  0
  4  5  2  0
  5  6  1  0
  6  7  2  0
  7  8  1  0
  8  9  2  0
  9 10  1  0
 10 11  2  0
  7 12  1  0
 11 12  1  0
  4 13  1  0
 12 13  2  0
  9 14  1  0
 14 15  2  0
 14 16  1  0
 16 17  1  0
 17 18  2  0
 18 19  1  0
 19 20  2  0
 20 21  1  0
 17 22  1  0
 21 22  2  0
M  END
$$$$
