
     RDKit          3D

 25 28  0  0  0  0  0  0  0  0999 V2000
   -7.3978   28.9569  -13.5460 C   0  0  0  0  0  0  0  0  0  0  0  0
   -9.1100   27.3575  -11.4302 C   0  0  0  0  0  0  0  0  0  0  0  0
   -9.3723   27.1724   -9.0373 C   0  0  0  0  0  0  0  0  0  0  0  0
   -8.3090   28.0431   -8.8142 C   0  0  0  0  0  0  0  0  0  0  0  0
   -6.2401   29.6214  -11.4088 C   0  0  0  0  0  0  0  0  0  0  0  0
   -5.1390   30.3687  -11.8682 C   0  0  0  0  0  0  0  0  0  0  0  0
   -4.3053   30.9681  -10.9211 C   0  0  0  0  0  0  0  0  0  0  0  0
   -5.6375   30.0641   -9.1078 C   0  0  0  0  0  0  0  0  0  0  0  0
   -8.1949   30.1449  -14.1171 C   0  0  1  0  0  0  0  0  0  0  0  0
   -8.4617   30.1100  -15.6336 C   0  0  0  0  0  0  0  0  0  0  0  0
  -10.7037   31.1516  -16.1099 C   0  0  0  0  0  0  0  0  0  0  0  0
  -11.9790   30.6219  -16.7475 C   0  0  0  0  0  0  0  0  0  0  0  0
  -10.2872   29.0437  -16.9907 C   0  0  0  0  0  0  0  0  0  0  0  0
   -8.0465   28.2529  -11.2111 C   0  0  0  0  0  0  0  0  0  0  0  0
   -9.7678   26.8247  -10.3190 C   0  0  0  0  0  0  0  0  0  0  0  0
   -7.6250   28.5876   -9.9211 C   0  0  0  0  0  0  0  0  0  0  0  0
   -6.4907   29.4460  -10.0454 C   0  0  0  0  0  0  0  0  0  0  0  0
   -4.5602   30.8178   -9.5670 C   0  0  0  0  0  0  0  0  0  0  0  0
  -10.0231   26.6523   -7.9878 F   0  0  0  0  0  0  0  0  0  0  0  0
   -3.7467   31.4035   -8.6778 F   0  0  0  0  0  0  0  0  0  0  0  0
   -9.8423   29.9846  -16.0611 N   0  0  0  0  0  0  0  0  0  0  0  0
  -11.5265   29.4549  -17.4497 N   0  0  0  0  0  0  0  0  0  0  0  0
   -7.2428   28.9548  -12.0944 N   0  0  0  0  0  0  0  0  0  0  0  0
   -9.4509   30.2939  -13.4296 O   0  0  0  0  0  0  0  0  0  0  0  0
   -9.7216   28.0249  -17.3420 O   0  0  0  0  0  0  0  0  0  0  0  0
  3  4  4  0
  5  6  4  0
  6  7  4  0
  1  9  1  0
  9 10  1  0
 11 12  1  0
  2 14  4  0
  2 15  4  0
  3 15  4  0
 14 16  4  0
  4 16  4  0
  5 17  4  0
 16 17  4  0
  8 17  4  0
  7 18  4  0
  8 18  4  0
  3 19  1  0
 18 20  1  0
 13 21  1  0
 11 21  1  0
 10 21  1  0
 13 22  1  0
 12 22  1  0
  1 23  1  0
 14 23  4  0
  5 23  4  0
  9 24  1  1
 13 25  2  0
M  END
