6TW5_9M2_CCC_501
     RDKit          3D

 59 62  0  0  0  0  0  0  0  0999 V2000
    5.0223  -14.1945   92.0827 C   0  0  0  0  0  0  0  0  0  0  0  0
    5.2564  -11.3781   88.7265 C   0  0  0  0  0  0  0  0  0  0  0  0
    5.7791  -10.6006   87.6772 C   0  0  0  0  0  0  0  0  0  0  0  0
    5.1223  -11.9480   91.1196 C   0  0  0  0  0  0  0  0  0  0  0  0
    5.4273  -13.3347   91.0407 C   0  0  0  0  0  0  0  0  0  0  0  0
    5.6066  -11.0689   90.0547 C   0  0  0  0  0  0  0  0  0  0  0  0
    6.4948   -9.9844   90.2618 C   0  0  0  0  0  0  0  0  0  0  0  0
    6.3213   -9.6861   85.6809 N   0  0  0  0  0  4  0  0  0  0  0  0
    7.0403   -9.2245   89.2336 C   0  0  0  0  0  0  0  0  0  0  0  0
    6.6710   -9.4830   87.9058 C   0  0  0  0  0  0  0  0  0  0  0  0
    3.9931  -14.5262   94.1389 F   0  0  0  0  0  0  0  0  0  0  0  0
    4.3255  -13.6600   93.1720 C   0  0  0  0  0  0  0  0  0  0  0  0
    4.0079  -12.3208   93.2863 C   0  0  0  0  0  0  0  0  0  0  0  0
    4.3717  -11.4526   92.2851 C   0  0  0  0  0  0  0  0  0  0  0  0
    7.0006   -8.9516   86.6724 N   0  0  0  0  0  0  0  0  0  0  0  0
    5.5546  -10.6719   86.2012 C   0  0  0  0  0  0  0  0  0  0  0  0
    4.6272  -11.6485   85.4392 C   0  0  0  0  0  0  0  0  0  0  0  0
    5.2933  -12.6622   84.5933 N   0  0  0  0  0  0  0  0  0  0  0  0
    6.5729  -12.1684   84.0080 C   0  0  0  0  0  0  0  0  0  0  0  0
    4.4138  -13.0234   83.4535 C   0  0  0  0  0  0  0  0  0  0  0  0
    4.0995  -10.1188   92.2939 O   0  0  0  0  0  0  0  0  0  0  0  0
    3.9450   -9.5484   90.9745 C   0  0  0  0  0  0  0  0  0  0  0  0
    2.8566   -8.5356   91.1258 C   0  0  0  0  0  0  0  0  0  0  0  0
    2.3879   -8.3061   92.5529 C   0  0  0  0  0  0  0  0  0  0  0  0
    2.8324   -7.3336   93.6113 C   0  0  0  0  0  0  0  0  0  0  0  0
    3.9539   -6.3209   93.6501 C   0  0  0  0  0  0  0  0  0  0  0  0
    2.0945   -7.5105   94.7035 N   0  0  0  0  0  0  0  0  0  0  0  0
    1.1378   -8.5359   94.4197 N   0  0  0  0  0  4  0  0  0  0  0  0
    0.1856   -8.8027   95.5104 C   0  0  0  0  0  0  0  0  0  0  0  0
    1.2544   -9.0421   93.1922 C   0  0  0  0  0  0  0  0  0  0  0  0
    0.4186  -10.1871   92.6480 C   0  0  0  0  0  0  0  0  0  0  0  0
    5.2367  -15.2033   92.0422 H   0  0  0  0  0  0  0  0  0  0  0  0
    4.6226  -12.1672   88.5248 H   0  0  0  0  0  0  0  0  0  0  0  0
    5.9410  -13.7088   90.2275 H   0  0  0  0  0  0  0  0  0  0  0  0
    6.7516   -9.7448   91.2323 H   0  0  0  0  0  0  0  0  0  0  0  0
    6.3961   -9.5026   84.7166 H   0  0  0  0  0  0  0  0  0  0  0  0
    7.7145   -8.4728   89.4467 H   0  0  0  0  0  0  0  0  0  0  0  0
    3.5016  -11.9750   94.1164 H   0  0  0  0  0  0  0  0  0  0  0  0
    4.0349  -12.1674   86.1638 H   0  0  0  0  0  0  0  0  0  0  0  0
    4.0654  -11.0384   84.7631 H   0  0  0  0  0  0  0  0  0  0  0  0
    7.2431  -11.8943   84.7958 H   0  0  0  0  0  0  0  0  0  0  0  0
    7.0159  -12.9415   83.4156 H   0  0  0  0  0  0  0  0  0  0  0  0
    6.3777  -11.3151   83.3927 H   0  0  0  0  0  0  0  0  0  0  0  0
    3.4781  -13.3853   83.8256 H   0  0  0  0  0  0  0  0  0  0  0  0
    4.2454  -12.1594   82.8451 H   0  0  0  0  0  0  0  0  0  0  0  0
    4.8837  -13.7858   82.8680 H   0  0  0  0  0  0  0  0  0  0  0  0
    4.8536   -9.0815   90.6562 H   0  0  0  0  0  0  0  0  0  0  0  0
    3.7108  -10.2882   90.2378 H   0  0  0  0  0  0  0  0  0  0  0  0
    3.2139   -7.6039   90.7397 H   0  0  0  0  0  0  0  0  0  0  0  0
    2.0130   -8.9206   90.5919 H   0  0  0  0  0  0  0  0  0  0  0  0
    4.4472   -6.2985   92.7008 H   0  0  0  0  0  0  0  0  0  0  0  0
    3.5530   -5.3528   93.8665 H   0  0  0  0  0  0  0  0  0  0  0  0
    4.6554   -6.5945   94.4103 H   0  0  0  0  0  0  0  0  0  0  0  0
    0.4249   -8.1863   96.3515 H   0  0  0  0  0  0  0  0  0  0  0  0
   -0.8076   -8.5833   95.1784 H   0  0  0  0  0  0  0  0  0  0  0  0
    0.2475   -9.8326   95.7939 H   0  0  0  0  0  0  0  0  0  0  0  0
    0.7130  -10.3963   91.6407 H   0  0  0  0  0  0  0  0  0  0  0  0
    0.5698  -11.0574   93.2518 H   0  0  0  0  0  0  0  0  0  0  0  0
   -0.6159   -9.9145   92.6679 H   0  0  0  0  0  0  0  0  0  0  0  0
  2  3  4  0
  1  5  4  0
  4  5  4  0
  4  6  1  0
  2  6  4  0
  6  7  4  0
  7  9  4  0
  3 10  4  0
  9 10  4  0
 11 12  1  0
  1 12  4  0
 12 13  4  0
 13 14  4  0
  4 14  4  0
 10 15  4  0
  8 15  4  0
  3 16  4  0
  8 16  4  0
 16 17  1  0
 17 18  1  0
 18 19  1  0
 18 20  1  0
 14 21  1  0
 21 22  1  0
 22 23  1  0
 23 24  1  0
 24 25  4  0
 25 26  1  0
 25 27  4  0
 27 28  4  0
 28 29  1  0
 24 30  4  0
 28 30  4  0
 30 31  1  0
  1 32  1  0
  2 33  1  0
  5 34  1  0
  7 35  1  0
  8 36  1  0
  9 37  1  0
 13 38  1  0
 17 39  1  0
 17 40  1  0
 19 41  1  0
 19 42  1  0
 19 43  1  0
 20 44  1  0
 20 45  1  0
 20 46  1  0
 22 47  1  0
 22 48  1  0
 23 49  1  0
 23 50  1  0
 26 51  1  0
 26 52  1  0
 26 53  1  0
 29 54  1  0
 29 55  1  0
 29 56  1  0
 31 57  1  0
 31 58  1  0
 31 59  1  0
M  CHG  2   8   1  28   1
M  END
