
     RDKit          3D

 34 36  0  0  0  0  0  0  0  0999 V2000
  -21.3407    2.1819    1.1286 N   0  0  0  0  0  0  0  0  0  0  0  0
  -23.1088    3.8038    1.3846 C   0  0  0  0  0  0  0  0  0  0  0  0
  -24.1087    3.4471    0.4256 C   0  0  0  0  0  0  0  0  0  0  0  0
  -24.3493    2.1653   -0.2286 C   0  0  0  0  0  0  0  0  0  0  0  0
  -24.5809    2.1005   -1.6075 C   0  0  0  0  0  0  0  0  0  0  0  0
  -24.8222    0.8693   -2.2222 C   0  0  0  0  0  0  0  0  0  0  0  0
  -25.0557   -1.6422   -2.1489 C   0  0  0  0  0  0  0  0  0  0  0  0
  -23.9300   -3.2692   -5.2456 C   0  0  0  0  0  0  0  0  0  0  0  0
  -22.8145   -3.6671   -7.3578 C   0  0  0  0  0  0  0  0  0  0  0  0
  -24.0325   -3.8893   -7.9803 C   0  0  0  0  0  0  0  0  0  0  0  0
  -26.9084   -2.1332   -4.9345 C   0  0  0  0  0  0  0  0  0  0  0  0
  -24.3374    0.9837    0.5225 C   0  0  0  0  0  0  0  0  0  0  0  0
  -25.0962    7.5042   -0.3506 C   0  0  0  0  0  0  0  0  0  0  0  0
  -21.5864    3.2154    3.0971 O   0  0  0  0  0  0  0  0  0  0  0  0
  -21.9948    3.0562    1.9483 C   0  0  0  0  0  0  0  0  0  0  0  0
  -24.8312   -0.3144   -1.4698 C   0  0  0  0  0  0  0  0  0  0  0  0
  -24.2563   -1.7426   -3.3454 N   0  0  0  0  0  0  0  0  0  0  0  0
  -23.7453   -2.9364   -3.7942 C   0  0  0  0  0  0  0  0  0  0  0  0
  -22.7515   -3.3606   -6.0068 C   0  0  0  0  0  0  0  0  0  0  0  0
  -21.6856   -3.7482   -8.0725 F   0  0  0  0  0  0  0  0  0  0  0  0
  -25.2129   -3.8069   -7.2386 C   0  0  0  0  0  0  0  0  0  0  0  0
  -25.1782   -3.5043   -5.8673 C   0  0  0  0  0  0  0  0  0  0  0  0
  -26.3081   -3.4160   -5.0923 O   0  0  0  0  0  0  0  0  0  0  0  0
  -23.1495   -3.7177   -3.0575 O   0  0  0  0  0  0  0  0  0  0  0  0
  -24.5770   -0.2475   -0.0931 C   0  0  0  0  0  0  0  0  0  0  0  0
  -24.9077    4.4862    0.1369 N   0  0  0  0  0  0  0  0  0  0  0  0
  -24.4829    5.4798    0.9410 N   0  0  0  0  0  0  0  0  0  0  0  0
  -25.2487    6.7154    0.9500 C   0  0  2  0  0  0  0  0  0  0  0  0
  -26.6968    6.4729    1.3101 C   0  0  0  0  0  0  0  0  0  0  0  0
  -27.4424    6.0625    0.2574 F   0  0  0  0  0  0  0  0  0  0  0  0
  -26.8395    5.5576    2.2940 F   0  0  0  0  0  0  0  0  0  0  0  0
  -27.2665    7.6198    1.7614 F   0  0  0  0  0  0  0  0  0  0  0  0
  -23.4095    5.1177    1.7148 C   0  0  0  0  0  0  0  0  0  0  0  0
  -22.8238    5.9407    2.6171 N   0  0  0  0  0  0  0  0  0  0  0  0
  2  3  4  0
  3  4  1  0
  4  5  4  0
  5  6  4  0
  9 10  4  0
  4 12  4  0
  1 15  1  0
  2 15  1  0
 14 15  2  0
  7 16  1  0
  6 16  4  0
  7 17  1  0
  8 18  1  0
 17 18  1  0
  9 19  4  0
  8 19  4  0
  9 20  1  0
 10 21  4  0
 21 22  4  0
  8 22  4  0
 22 23  1  0
 11 23  1  0
 18 24  2  0
 12 25  4  0
 16 25  4  0
  3 26  4  0
 26 27  4  0
 28 13  1  6
 27 28  1  0
 28 29  1  0
 29 30  1  0
 29 31  1  0
 29 32  1  0
 27 33  4  0
  2 33  4  0
 33 34  1  0
M  END
