1YWR_LI9_A_361
     RDKit          3D

 35 39  0  0  0  0  0  0  0  0999 V2000
    3.7119   -0.9713   17.0194 C   0  0  0  0  0  0  0  0  0  0  0  0
    6.1533    0.2319   17.5587 C   0  0  0  0  0  0  0  0  0  0  0  0
    4.1527   -0.9058   18.3366 C   0  0  0  0  0  0  0  0  0  0  0  0
    4.4905   -0.4410   16.0127 C   0  0  0  0  0  0  0  0  0  0  0  0
    5.7166    0.1652   16.2663 C   0  0  0  0  0  0  0  0  0  0  0  0
    5.3624   -0.3060   18.5767 C   0  0  0  0  0  0  0  0  0  0  0  0
    3.3348   -1.4588   19.4091 C   0  0  0  0  0  0  0  0  0  0  0  0
    6.4899    0.6888   15.2883 F   0  0  0  0  0  0  0  0  0  0  0  0
    2.1893   -2.8573   20.6204 N   0  0  0  0  0  0  0  0  0  0  0  0
    1.5600   -4.0625   21.0908 C   0  0  2  0  0  0  0  0  0  0  0  0
    1.4398   -1.4291   22.4462 C   0  0  0  0  0  0  0  0  0  0  0  0
    2.8469   -0.7636   20.4948 C   0  0  0  0  0  0  0  0  0  0  0  0
    2.9979    0.6263   20.8727 C   0  0  0  0  0  0  0  0  0  0  0  0
    3.1977   -3.6689   18.6541 O   0  0  0  0  0  0  0  0  0  0  0  0
    2.9227   -2.7802   19.4840 C   0  0  0  0  0  0  0  0  0  0  0  0
    2.1483   -1.6666   21.2111 N   0  0  0  0  0  0  0  0  0  0  0  0
    0.1976   -5.6816   19.7602 C   0  0  0  0  0  0  0  0  0  0  0  0
    1.5961   -6.4333   21.5712 C   0  0  0  0  0  0  0  0  0  0  0  0
    2.4059   -5.3025   20.9260 C   0  0  0  0  0  0  0  0  0  0  0  0
    0.2346   -4.3231   20.4079 C   0  0  0  0  0  0  0  0  0  0  0  0
    0.5220   -6.7457   20.6569 N   0  0  0  0  0  0  0  0  0  0  0  0
    3.0673    0.9056   22.1870 N   0  0  0  0  0  0  0  0  0  0  0  0
    3.2157    2.9793   20.3988 C   0  0  0  0  0  0  0  0  0  0  0  0
    3.2760    2.4136   24.0142 N   0  0  0  0  0  0  0  0  0  0  0  0
    3.0731    1.6726   19.9801 C   0  0  0  0  0  0  0  0  0  0  0  0
    3.2061    2.1735   22.6117 C   0  0  0  0  0  0  0  0  0  0  0  0
    3.2789    3.1900   21.7347 N   0  0  0  0  0  0  0  0  0  0  0  0
    3.1717    1.3413   24.9927 C   0  0  2  0  0  0  0  0  0  0  0  0
    1.8037    0.8068   24.9998 C   0  0  0  0  0  0  0  0  0  0  0  0
    3.5780    1.9062   26.3437 C   0  0  0  0  0  0  0  0  0  0  0  0
   -0.8782    0.0016   24.9713 C   0  0  0  0  0  0  0  0  0  0  0  0
    0.7575    1.7057   24.7634 C   0  0  0  0  0  0  0  0  0  0  0  0
    1.4801   -0.5140   25.2236 C   0  0  0  0  0  0  0  0  0  0  0  0
    0.1439   -0.8816   25.2031 C   0  0  0  0  0  0  0  0  0  0  0  0
   -0.5591    1.3132   24.7489 C   0  0  0  0  0  0  0  0  0  0  0  0
  1  3  2  0
  1  4  1  0
  2  5  1  0
  4  5  2  0
  2  6  2  0
  3  6  1  0
  3  7  1  0
  5  8  1  0
 10  9  1  6
  7 12  2  0
 12 13  1  0
  7 15  1  0
  9 15  1  0
 14 15  2  0
  9 16  1  0
 11 16  1  0
 12 16  1  0
 10 19  1  0
 18 19  1  0
 10 20  1  0
 17 20  1  0
 17 21  1  0
 18 21  1  0
 13 22  2  0
 13 25  1  0
 23 25  2  0
 22 26  1  0
 24 26  1  0
 23 27  1  0
 26 27  2  0
 24 28  1  0
 28 29  1  0
 28 30  1  1
 29 32  1  0
 29 33  2  0
 31 34  2  0
 33 34  1  0
 31 35  1  0
 32 35  2  0
M  END
$$$$
