1YWR_LI9_A_361
     RDKit          3D

 35 39  0  0  0  0  0  0  0  0999 V2000
    5.4078   -0.3786   18.5171 C   0  0  0  0  0  0  0  0  0  0  0  0
    4.5751   -0.4887   15.8726 C   0  0  0  0  0  0  0  0  0  0  0  0
    4.1854   -0.9719   18.2214 C   0  0  0  0  0  0  0  0  0  0  0  0
    6.1781    0.1404   17.4982 C   0  0  0  0  0  0  0  0  0  0  0  0
    5.7749    0.0933   16.1676 C   0  0  0  0  0  0  0  0  0  0  0  0
    3.7967   -1.0138   16.9069 C   0  0  0  0  0  0  0  0  0  0  0  0
    3.3657   -1.5283   19.2907 C   0  0  0  0  0  0  0  0  0  0  0  0
    6.5206    0.5987   15.1591 F   0  0  0  0  0  0  0  0  0  0  0  0
    2.2178   -2.9307   20.4952 N   0  0  0  0  0  0  0  0  0  0  0  0
    1.5873   -4.1373   20.9604 C   0  0  2  0  0  0  0  0  0  0  0  0
    1.4664   -1.5088   22.3251 C   0  0  0  0  0  0  0  0  0  0  0  0
    2.8766   -0.8369   20.3782 C   0  0  0  0  0  0  0  0  0  0  0  0
    3.0277    0.5516   20.7613 C   0  0  0  0  0  0  0  0  0  0  0  0
    3.2286   -3.7357   18.5275 O   0  0  0  0  0  0  0  0  0  0  0  0
    2.9529   -2.8498   19.3602 C   0  0  0  0  0  0  0  0  0  0  0  0
    2.1765   -1.7421   21.0902 N   0  0  0  0  0  0  0  0  0  0  0  0
    0.1732   -5.7176   19.6370 C   0  0  0  0  0  0  0  0  0  0  0  0
    1.6091   -6.5166   21.3980 C   0  0  0  0  0  0  0  0  0  0  0  0
    2.4147   -5.3832   20.7522 C   0  0  0  0  0  0  0  0  0  0  0  0
    0.2420   -4.3713   20.3073 C   0  0  0  0  0  0  0  0  0  0  0  0
    0.5085   -6.8010   20.5062 N   0  0  0  0  0  0  0  0  0  0  0  0
    3.0548    0.8304   22.0772 N   0  0  0  0  0  0  0  0  0  0  0  0
    3.2837    2.9024   20.2956 C   0  0  0  0  0  0  0  0  0  0  0  0
    3.2152    2.3366   23.9108 N   0  0  0  0  0  0  0  0  0  0  0  0
    3.1433    1.5970   19.8720 C   0  0  0  0  0  0  0  0  0  0  0  0
    3.1910    2.0969   22.5067 C   0  0  0  0  0  0  0  0  0  0  0  0
    3.3032    3.1127   21.6329 N   0  0  0  0  0  0  0  0  0  0  0  0
    3.1153    1.2600   24.8851 C   0  0  2  0  0  0  0  0  0  0  0  0
    1.7448    0.7323   24.9033 C   0  0  0  0  0  0  0  0  0  0  0  0
    3.5379    1.8162   26.2347 C   0  0  0  0  0  0  0  0  0  0  0  0
   -0.7781   -0.4800   24.9870 C   0  0  0  0  0  0  0  0  0  0  0  0
    1.5798   -0.6276   25.1893 C   0  0  0  0  0  0  0  0  0  0  0  0
    0.6140    1.4808   24.6577 C   0  0  0  0  0  0  0  0  0  0  0  0
   -0.6204    0.8523   24.7065 C   0  0  0  0  0  0  0  0  0  0  0  0
    0.3431   -1.2249   25.2310 C   0  0  0  0  0  0  0  0  0  0  0  0
  1  3  2  0
  1  4  1  0
  2  5  1  0
  4  5  2  0
  2  6  2  0
  3  6  1  0
  3  7  1  0
  5  8  1  0
 10  9  1  6
  7 12  2  0
 12 13  1  0
  7 15  1  0
  9 15  1  0
 14 15  2  0
  9 16  1  0
 11 16  1  0
 12 16  1  0
 10 19  1  0
 18 19  1  0
 10 20  1  0
 17 20  1  0
 17 21  1  0
 18 21  1  0
 13 22  2  0
 13 25  1  0
 23 25  2  0
 22 26  1  0
 24 26  1  0
 23 27  1  0
 26 27  2  0
 24 28  1  0
 28 29  1  0
 28 30  1  1
 29 32  1  0
 29 33  2  0
 31 34  2  0
 33 34  1  0
 31 35  1  0
 32 35  2  0
M  END
$$$$
