1YWR_LI9_A_361
     RDKit          3D

 35 39  0  0  0  0  0  0  0  0999 V2000
    3.8201   -1.1489   16.9498 C   0  0  0  0  0  0  0  0  0  0  0  0
    6.2416    0.0740   17.5327 C   0  0  0  0  0  0  0  0  0  0  0  0
    4.2355   -1.0779   18.2749 C   0  0  0  0  0  0  0  0  0  0  0  0
    4.6133   -0.6143   15.9569 C   0  0  0  0  0  0  0  0  0  0  0  0
    5.8298    0.0019   16.2324 C   0  0  0  0  0  0  0  0  0  0  0  0
    5.4358   -0.4684   18.5367 C   0  0  0  0  0  0  0  0  0  0  0  0
    3.4018   -1.6354   19.3328 C   0  0  0  0  0  0  0  0  0  0  0  0
    6.6172    0.5298   15.2682 F   0  0  0  0  0  0  0  0  0  0  0  0
    2.2412   -3.0399   20.5227 N   0  0  0  0  0  0  0  0  0  0  0  0
    1.6083   -4.2480   20.9807 C   0  0  2  0  0  0  0  0  0  0  0  0
    1.4568   -1.6174   22.3382 C   0  0  0  0  0  0  0  0  0  0  0  0
    2.8937   -0.9438   20.4114 C   0  0  0  0  0  0  0  0  0  0  0  0
    3.0338    0.4460   20.7941 C   0  0  0  0  0  0  0  0  0  0  0  0
    3.2846   -3.8448   18.5720 O   0  0  0  0  0  0  0  0  0  0  0  0
    2.9931   -2.9584   19.3987 C   0  0  0  0  0  0  0  0  0  0  0  0
    2.1864   -1.8503   21.1146 N   0  0  0  0  0  0  0  0  0  0  0  0
    0.2949   -5.8825   19.6200 C   0  0  0  0  0  0  0  0  0  0  0  0
    1.6490   -6.6166   21.4715 C   0  0  0  0  0  0  0  0  0  0  0  0
    2.4676   -5.4822   20.8441 C   0  0  0  0  0  0  0  0  0  0  0  0
    0.3040   -4.5212   20.2629 C   0  0  0  0  0  0  0  0  0  0  0  0
    0.6026   -6.9407   20.5295 N   0  0  0  0  0  0  0  0  0  0  0  0
    3.0735    0.7240   22.1099 N   0  0  0  0  0  0  0  0  0  0  0  0
    3.2576    2.8000   20.3276 C   0  0  0  0  0  0  0  0  0  0  0  0
    3.2390    2.2303   23.9428 N   0  0  0  0  0  0  0  0  0  0  0  0
    3.1267    1.4934   19.9045 C   0  0  0  0  0  0  0  0  0  0  0  0
    3.2006    1.9916   22.5389 C   0  0  0  0  0  0  0  0  0  0  0  0
    3.2908    3.0093   21.6649 N   0  0  0  0  0  0  0  0  0  0  0  0
    3.1389    1.1541   24.9175 C   0  0  2  0  0  0  0  0  0  0  0  0
    1.7439    0.7066   25.0217 C   0  0  0  0  0  0  0  0  0  0  0  0
    3.6786    1.6747   26.2393 C   0  0  0  0  0  0  0  0  0  0  0  0
   -0.9786    0.0721   25.1867 C   0  0  0  0  0  0  0  0  0  0  0  0
    0.7426    1.6733   24.8766 C   0  0  0  0  0  0  0  0  0  0  0  0
    1.3542   -0.5950   25.2529 C   0  0  0  0  0  0  0  0  0  0  0  0
   -0.0006   -0.8775   25.3293 C   0  0  0  0  0  0  0  0  0  0  0  0
   -0.5939    1.3647   24.9571 C   0  0  0  0  0  0  0  0  0  0  0  0
  1  3  2  0
  1  4  1  0
  2  5  1  0
  4  5  2  0
  2  6  2  0
  3  6  1  0
  3  7  1  0
  5  8  1  0
 10  9  1  6
  7 12  2  0
 12 13  1  0
  7 15  1  0
  9 15  1  0
 14 15  2  0
  9 16  1  0
 11 16  1  0
 12 16  1  0
 10 19  1  0
 18 19  1  0
 10 20  1  0
 17 20  1  0
 17 21  1  0
 18 21  1  0
 13 22  2  0
 13 25  1  0
 23 25  2  0
 22 26  1  0
 24 26  1  0
 23 27  1  0
 26 27  2  0
 24 28  1  0
 28 29  1  0
 28 30  1  1
 29 32  1  0
 29 33  2  0
 31 34  2  0
 33 34  1  0
 31 35  1  0
 32 35  2  0
M  END
$$$$
