1YWR_LI9_A_361
     RDKit          3D

 35 39  0  0  0  0  0  0  0  0999 V2000
  -36.2414   -3.4923   13.7221 C   0  0  0  0  0  0  0  0  0  0  0  0
  -35.5112   -2.3808   16.1573 C   0  0  0  0  0  0  0  0  0  0  0  0
  -35.1645   -4.0363   14.4134 C   0  0  0  0  0  0  0  0  0  0  0  0
  -36.9217   -2.4182   14.2554 C   0  0  0  0  0  0  0  0  0  0  0  0
  -36.5682   -1.8494   15.4748 C   0  0  0  0  0  0  0  0  0  0  0  0
  -34.8238   -3.4691   15.6146 C   0  0  0  0  0  0  0  0  0  0  0  0
  -34.4416   -5.1752   13.8607 C   0  0  0  0  0  0  0  0  0  0  0  0
  -37.2268   -0.7961   16.0088 F   0  0  0  0  0  0  0  0  0  0  0  0
  -33.3754   -7.0659   13.7062 N   0  0  0  0  0  0  0  0  0  0  0  0
  -32.7528   -8.3169   14.0484 C   0  0  2  0  0  0  0  0  0  0  0  0
  -32.8742   -7.1558   11.3238 C   0  0  0  0  0  0  0  0  0  0  0  0
  -34.0958   -5.3490   12.5378 C   0  0  0  0  0  0  0  0  0  0  0  0
  -34.3380   -4.5134   11.3799 C   0  0  0  0  0  0  0  0  0  0  0  0
  -34.1428   -6.4020   15.8303 O   0  0  0  0  0  0  0  0  0  0  0  0
  -33.9895   -6.2559   14.6018 C   0  0  0  0  0  0  0  0  0  0  0  0
  -33.4413   -6.5263   12.4925 N   0  0  0  0  0  0  0  0  0  0  0  0
  -31.5127   -8.8704   16.1470 C   0  0  0  0  0  0  0  0  0  0  0  0
  -32.8250  -10.5372   15.0066 C   0  0  0  0  0  0  0  0  0  0  0  0
  -33.6397   -9.2492   14.8386 C   0  0  0  0  0  0  0  0  0  0  0  0
  -31.4761   -8.1262   14.8388 C   0  0  0  0  0  0  0  0  0  0  0  0
  -31.8137  -10.2595   16.0003 N   0  0  0  0  0  0  0  0  0  0  0  0
  -34.6946   -5.1282   10.2375 N   0  0  0  0  0  0  0  0  0  0  0  0
  -34.4684   -2.3953   10.2374 C   0  0  0  0  0  0  0  0  0  0  0  0
  -35.3100   -5.1174    7.9403 N   0  0  0  0  0  0  0  0  0  0  0  0
  -34.2263   -3.1406   11.3728 C   0  0  0  0  0  0  0  0  0  0  0  0
  -34.9341   -4.4168    9.1223 C   0  0  0  0  0  0  0  0  0  0  0  0
  -34.8231   -3.0768    9.1225 N   0  0  0  0  0  0  0  0  0  0  0  0
  -35.3089   -6.5708    7.8644 C   0  0  2  0  0  0  0  0  0  0  0  0
  -33.9323   -7.0591    7.7105 C   0  0  0  0  0  0  0  0  0  0  0  0
  -36.1983   -6.9744    6.7002 C   0  0  0  0  0  0  0  0  0  0  0  0
  -31.2728   -7.8169    7.2696 C   0  0  0  0  0  0  0  0  0  0  0  0
  -33.0870   -6.3484    6.8511 C   0  0  0  0  0  0  0  0  0  0  0  0
  -33.4177   -8.1657    8.3508 C   0  0  0  0  0  0  0  0  0  0  0  0
  -32.0979   -8.5154    8.1122 C   0  0  0  0  0  0  0  0  0  0  0  0
  -31.7817   -6.7181    6.6330 C   0  0  0  0  0  0  0  0  0  0  0  0
  1  3  2  0
  1  4  1  0
  2  5  1  0
  4  5  2  0
  2  6  2  0
  3  6  1  0
  3  7  1  0
  5  8  1  0
 10  9  1  1
  7 12  2  0
 12 13  1  0
  7 15  1  0
  9 15  1  0
 14 15  2  0
  9 16  1  0
 11 16  1  0
 12 16  1  0
 10 19  1  0
 18 19  1  0
 10 20  1  0
 17 20  1  0
 17 21  1  0
 18 21  1  0
 13 22  2  0
 13 25  1  0
 23 25  2  0
 22 26  1  0
 24 26  1  0
 23 27  1  0
 26 27  2  0
 24 28  1  0
 28 29  1  0
 28 30  1  6
 29 32  1  0
 29 33  2  0
 31 34  2  0
 33 34  1  0
 31 35  1  0
 32 35  2  0
M  END
$$$$
