1YWR_LI9_A_361
     RDKit          3D

 35 39  0  0  0  0  0  0  0  0999 V2000
    5.3120   -0.5247   18.4608 C   0  0  0  0  0  0  0  0  0  0  0  0
    4.4772   -0.5784   15.8152 C   0  0  0  0  0  0  0  0  0  0  0  0
    4.0791   -1.0911   18.1564 C   0  0  0  0  0  0  0  0  0  0  0  0
    6.0915   -0.0038   17.4498 C   0  0  0  0  0  0  0  0  0  0  0  0
    5.6874   -0.0228   16.1188 C   0  0  0  0  0  0  0  0  0  0  0  0
    3.6896   -1.1055   16.8415 C   0  0  0  0  0  0  0  0  0  0  0  0
    3.2496   -1.6493   19.2172 C   0  0  0  0  0  0  0  0  0  0  0  0
    6.4420    0.4847   15.1180 F   0  0  0  0  0  0  0  0  0  0  0  0
    2.0929   -3.0542   20.4102 N   0  0  0  0  0  0  0  0  0  0  0  0
    1.4608   -4.2623   20.8694 C   0  0  2  0  0  0  0  0  0  0  0  0
    1.3179   -1.6334   22.2311 C   0  0  0  0  0  0  0  0  0  0  0  0
    2.7469   -0.9586   20.2989 C   0  0  0  0  0  0  0  0  0  0  0  0
    2.8900    0.4305   20.6828 C   0  0  0  0  0  0  0  0  0  0  0  0
    3.1269   -3.8575   18.4539 O   0  0  0  0  0  0  0  0  0  0  0  0
    2.8398   -2.9719   19.2831 C   0  0  0  0  0  0  0  0  0  0  0  0
    2.0418   -1.8654   21.0040 N   0  0  0  0  0  0  0  0  0  0  0  0
    0.1089   -5.8746   19.5200 C   0  0  0  0  0  0  0  0  0  0  0  0
    1.4947   -6.6358   21.3368 C   0  0  0  0  0  0  0  0  0  0  0  0
    2.3085   -5.5010   20.7038 C   0  0  0  0  0  0  0  0  0  0  0  0
    0.1405   -4.5197   20.1754 C   0  0  0  0  0  0  0  0  0  0  0  0
    0.4274   -6.9436   20.4130 N   0  0  0  0  0  0  0  0  0  0  0  0
    2.9601    0.7044   21.9982 N   0  0  0  0  0  0  0  0  0  0  0  0
    3.0922    2.7870   20.2191 C   0  0  0  0  0  0  0  0  0  0  0  0
    3.1629    2.2054   23.8318 N   0  0  0  0  0  0  0  0  0  0  0  0
    2.9570    1.4812   19.7948 C   0  0  0  0  0  0  0  0  0  0  0  0
    3.0919    1.9711   22.4284 C   0  0  0  0  0  0  0  0  0  0  0  0
    3.1566    2.9921   21.5559 N   0  0  0  0  0  0  0  0  0  0  0  0
    3.1219    1.1229   24.8038 C   0  0  2  0  0  0  0  0  0  0  0  0
    1.7389    0.6576   24.9709 C   0  0  0  0  0  0  0  0  0  0  0  0
    3.7170    1.6432   26.1017 C   0  0  0  0  0  0  0  0  0  0  0  0
   -0.9635   -0.0093   25.2775 C   0  0  0  0  0  0  0  0  0  0  0  0
    0.7275    1.6247   24.9718 C   0  0  0  0  0  0  0  0  0  0  0  0
    1.3698   -0.6609   25.1276 C   0  0  0  0  0  0  0  0  0  0  0  0
    0.0245   -0.9592   25.2770 C   0  0  0  0  0  0  0  0  0  0  0  0
   -0.5991    1.3002   25.1220 C   0  0  0  0  0  0  0  0  0  0  0  0
  1  3  2  0
  1  4  1  0
  2  5  1  0
  4  5  2  0
  2  6  2  0
  3  6  1  0
  3  7  1  0
  5  8  1  0
 10  9  1  6
  7 12  2  0
 12 13  1  0
  7 15  1  0
  9 15  1  0
 14 15  2  0
  9 16  1  0
 11 16  1  0
 12 16  1  0
 10 19  1  0
 18 19  1  0
 10 20  1  0
 17 20  1  0
 17 21  1  0
 18 21  1  0
 13 22  2  0
 13 25  1  0
 23 25  2  0
 22 26  1  0
 24 26  1  0
 23 27  1  0
 26 27  2  0
 24 28  1  0
 28 29  1  0
 28 30  1  1
 29 32  1  0
 29 33  2  0
 31 34  2  0
 33 34  1  0
 31 35  1  0
 32 35  2  0
M  END
$$$$
