1T46_STI_A_3
     RDKit          3D

 68 72  0  0  0  0  0  0  0  0999 V2000
   29.1531   25.9481   40.0994 C   0  0  0  0  0  0  0  0  0  0  0  0
   29.3113   26.3359   41.4316 C   0  0  0  0  0  0  0  0  0  0  0  0
   28.2422   26.2109   42.3383 C   0  0  0  0  0  0  0  0  0  0  0  0
   27.0225   25.7019   41.8550 C   0  0  0  0  0  0  0  0  0  0  0  0
   26.8964   25.3326   40.5524 N   0  0  0  0  0  0  0  0  0  0  0  0
   27.9261   25.4419   39.6743 C   0  0  0  0  0  0  0  0  0  0  0  0
   28.3560   26.6468   43.7551 C   0  0  0  0  0  0  0  0  0  0  0  0
   29.4540   27.3819   44.2291 C   0  0  0  0  0  0  0  0  0  0  0  0
   29.4744   27.7661   45.5703 C   0  0  0  0  0  0  0  0  0  0  0  0
   28.4475   27.4296   46.3924 N   0  0  0  0  0  0  0  0  0  0  0  0
   27.3883   26.7169   45.9288 C   0  0  0  0  0  0  0  0  0  0  0  0
   27.3623   26.3246   44.6266 N   0  0  0  0  0  0  0  0  0  0  0  0
   26.3221   26.3612   46.8216 N   0  0  0  0  0  0  0  0  0  0  0  0
   25.0943   25.7465   46.3833 C   0  0  0  0  0  0  0  0  0  0  0  0
   24.3571   24.9095   47.2521 C   0  0  0  0  0  0  0  0  0  0  0  0
   23.1591   24.3304   46.8020 C   0  0  0  0  0  0  0  0  0  0  0  0
   22.7052   24.5548   45.5013 C   0  0  0  0  0  0  0  0  0  0  0  0
   23.4367   25.3725   44.6270 C   0  0  0  0  0  0  0  0  0  0  0  0
   24.6022   25.9955   45.0888 C   0  0  0  0  0  0  0  0  0  0  0  0
   22.9923   25.6156   43.2813 N   0  0  0  0  0  0  0  0  0  0  0  0
   23.1141   24.6499   42.2210 C   0  0  0  0  0  0  0  0  0  0  0  0
   23.5271   25.0623   40.8564 C   0  0  0  0  0  0  0  0  0  0  0  0
   24.3519   24.2402   40.0666 C   0  0  0  0  0  0  0  0  0  0  0  0
   24.7207   24.6336   38.7772 C   0  0  0  0  0  0  0  0  0  0  0  0
   24.2809   25.8593   38.2562 C   0  0  0  0  0  0  0  0  0  0  0  0
   23.4688   26.6877   39.0429 C   0  0  0  0  0  0  0  0  0  0  0  0
   23.0991   26.2961   40.3327 C   0  0  0  0  0  0  0  0  0  0  0  0
   24.6530   26.2762   36.8577 C   0  0  1  0  0  0  0  0  0  0  0  0
   25.9835   26.9238   36.8457 N   0  0  0  0  0  0  0  0  0  0  0  0
   27.0700   25.9720   36.5349 C   0  0  1  0  0  0  0  0  0  0  0  0
   27.1135   25.6154   35.0427 C   0  0  2  0  0  0  0  0  0  0  0  0
   27.2668   26.8401   34.2386 N   0  0  0  0  0  0  0  0  0  0  0  0
   27.3462   26.4999   32.8105 C   0  0  2  0  0  0  0  0  0  0  0  0
   26.1327   27.7496   34.4787 C   0  0  1  0  0  0  0  0  0  0  0  0
   26.0493   28.1157   35.9693 C   0  0  2  0  0  0  0  0  0  0  0  0
   22.9208   23.4262   42.4640 O   0  0  0  0  0  0  0  0  0  0  0  0
   24.8385   24.6250   48.6484 C   0  0  2  0  0  0  0  0  0  0  0  0
   29.9726   26.0497   39.4001 H   0  0  0  0  0  0  0  0  0  0  0  0
   30.2595   26.7569   41.7350 H   0  0  0  0  0  0  0  0  0  0  0  0
   26.1685   25.5919   42.5113 H   0  0  0  0  0  0  0  0  0  0  0  0
   27.7878   25.1423   38.6424 H   0  0  0  0  0  0  0  0  0  0  0  0
   30.2896   27.6396   43.5933 H   0  0  0  0  0  0  0  0  0  0  0  0
   30.3093   28.3316   45.9597 H   0  0  0  0  0  0  0  0  0  0  0  0
   26.4842   26.4969   47.8453 H   0  0  0  0  0  0  0  0  0  0  0  0
   22.5744   23.6972   47.4578 H   0  0  0  0  0  0  0  0  0  0  0  0
   21.7731   24.1052   45.1866 H   0  0  0  0  0  0  0  0  0  0  0  0
   25.1307   26.6721   44.4293 H   0  0  0  0  0  0  0  0  0  0  0  0
   22.7464   26.5983   43.0264 H   0  0  0  0  0  0  0  0  0  0  0  0
   24.7280   23.2986   40.4436 H   0  0  0  0  0  0  0  0  0  0  0  0
   25.3471   23.9788   38.1848 H   0  0  0  0  0  0  0  0  0  0  0  0
   23.1188   27.6368   38.6546 H   0  0  0  0  0  0  0  0  0  0  0  0
   22.4650   26.9532   40.9151 H   0  0  0  0  0  0  0  0  0  0  0  0
   24.6666   25.3541   36.2347 H   0  0  0  0  0  0  0  0  0  0  0  0
   23.8749   26.9363   36.4187 H   0  0  0  0  0  0  0  0  0  0  0  0
   28.0417   26.4296   36.8225 H   0  0  0  0  0  0  0  0  0  0  0  0
   26.9677   25.0450   37.1407 H   0  0  0  0  0  0  0  0  0  0  0  0
   26.1940   25.0573   34.7551 H   0  0  0  0  0  0  0  0  0  0  0  0
   27.9847   24.9444   34.8761 H   0  0  0  0  0  0  0  0  0  0  0  0
   27.0628   27.3786   32.1926 H   0  0  0  0  0  0  0  0  0  0  0  0
   26.6297   25.6847   32.5713 H   0  0  0  0  0  0  0  0  0  0  0  0
   28.3723   26.1760   32.5279 H   0  0  0  0  0  0  0  0  0  0  0  0
   26.2802   28.6904   33.9042 H   0  0  0  0  0  0  0  0  0  0  0  0
   25.1751   27.2985   34.1364 H   0  0  0  0  0  0  0  0  0  0  0  0
   26.9499   28.7084   36.2417 H   0  0  0  0  0  0  0  0  0  0  0  0
   25.1768   28.7816   36.1375 H   0  0  0  0  0  0  0  0  0  0  0  0
   24.7899   25.5517   49.2578 H   0  0  0  0  0  0  0  0  0  0  0  0
   25.8862   24.2568   48.6196 H   0  0  0  0  0  0  0  0  0  0  0  0
   24.2184   23.8486   49.1438 H   0  0  0  0  0  0  0  0  0  0  0  0
  1  2  2  0
  2  3  1  0
  3  4  2  0
  4  5  1  0
  1  6  1  0
  5  6  2  0
  3  7  1  0
  7  8  2  0
  8  9  1  0
  9 10  2  0
 10 11  1  0
  7 12  1  0
 11 12  2  0
 11 13  1  0
 13 14  1  0
 14 15  2  0
 15 16  1  0
 16 17  2  0
 17 18  1  0
 14 19  1  0
 18 19  2  0
 18 20  1  0
 20 21  1  0
 21 22  1  0
 22 23  2  0
 23 24  1  0
 24 25  2  0
 25 26  1  0
 22 27  1  0
 26 27  2  0
 25 28  1  0
 28 29  1  0
 29 30  1  0
 30 31  1  0
 31 32  1  0
 32 33  1  0
 32 34  1  0
 29 35  1  0
 34 35  1  0
 21 36  2  0
 15 37  1  0
  1 38  1  0
  2 39  1  0
  4 40  1  0
  6 41  1  0
  8 42  1  0
  9 43  1  0
 13 44  1  0
 16 45  1  0
 17 46  1  0
 19 47  1  0
 20 48  1  0
 23 49  1  0
 24 50  1  0
 26 51  1  0
 27 52  1  0
 28 53  1  6
 28 54  1  0
 30 55  1  1
 30 56  1  0
 31 57  1  6
 31 58  1  0
 33 59  1  6
 33 60  1  0
 33 61  1  0
 34 62  1  6
 34 63  1  0
 35 64  1  1
 35 65  1  0
 37 66  1  1
 37 67  1  0
 37 68  1  0
M  END
