7NF0_BYN_B_702
     RDKit          3D

 37 40  0  0  0  0  0  0  0  0999 V2000
   -3.6991   17.5426   26.1565 C   0  0  0  0  0  0  0  0  0  0  0  0
   -4.7705   16.9717   25.5570 N   0  0  0  0  0  0  0  0  0  0  0  0
   -6.0640   17.3209   25.9232 C   0  0  0  0  0  0  0  0  0  0  0  0
   -6.1618   18.2872   26.8940 C   0  0  0  0  0  0  0  0  0  0  0  0
   -5.0034   18.8260   27.4935 C   0  0  0  0  0  0  0  0  0  0  0  0
   -3.7568   18.4908   27.0400 N   0  0  0  0  0  0  0  0  0  0  0  0
   -7.3921   18.7931   27.3442 N   0  0  0  0  0  0  0  0  0  0  0  0
   -7.4654   19.4029   28.5852 C   0  0  0  0  0  0  0  0  0  0  0  0
   -6.2821   19.8297   29.2255 C   0  0  0  0  0  0  0  0  0  0  0  0
   -5.0714   19.6998   28.5575 N   0  0  0  0  0  0  0  0  0  0  0  0
   -8.7361   19.5678   29.2206 C   0  0  0  0  0  0  0  0  0  0  0  0
   -8.7901   20.1535   30.4944 C   0  0  0  0  0  0  0  0  0  0  0  0
   -7.6191   20.6610   31.0786 C   0  0  0  0  0  0  0  0  0  0  0  0
   -6.3776   20.4204   30.4884 C   0  0  0  0  0  0  0  0  0  0  0  0
   -8.4857   18.8543   26.3865 C   0  0  1  0  0  0  0  0  0  0  0  0
   -9.7314   19.4626   26.9730 C   0  0  0  0  0  0  0  0  0  0  0  0
   -9.9212   19.0111   28.4351 C   0  0  2  0  0  0  0  0  0  0  0  0
   -2.5134   17.0346   25.7586 O   0  0  0  0  0  0  0  0  0  0  0  0
   -7.6648   21.3923   32.3871 C   0  0  0  0  0  0  0  0  0  0  0  0
  -10.1045   20.3875   31.2367 C   0  0  0  0  0  0  0  0  0  0  0  0
   -8.1093   19.3740   25.1822 O   0  0  0  0  0  0  0  0  0  0  0  0
  -11.3059   19.4939   28.8331 C   0  0  0  0  0  0  0  0  0  0  0  0
   -9.9176   17.4717   28.5741 C   0  0  0  0  0  0  0  0  0  0  0  0
   -3.8707   20.4044   28.9941 C   0  0  0  0  0  0  0  0  0  0  0  0
   -6.9512   16.6412   25.4609 O   0  0  0  0  0  0  0  0  0  0  0  0
   -3.0389   21.0377   27.8781 C   0  0  1  0  0  0  0  0  0  0  0  0
   -3.8582   22.1349   27.1837 C   0  0  1  0  0  0  0  0  0  0  0  0
   -3.0320   23.3581   26.7702 C   0  0  1  0  0  0  0  0  0  0  0  0
   -1.5563   23.1947   26.9799 C   0  0  0  0  0  0  0  0  0  0  0  0
   -1.8124   21.6112   28.3929 O   0  0  0  0  0  0  0  0  0  0  0  0
   -4.4882   21.5503   26.0081 O   0  0  0  0  0  0  0  0  0  0  0  0
   -3.3042   23.6846   25.4041 O   0  0  0  0  0  0  0  0  0  0  0  0
   -1.0063   24.4838   27.5148 O   0  0  0  0  0  0  0  0  0  0  0  0
   -0.8937   25.7294   26.4963 P   0  0  2  0  0  0  0  0  0  0  0  0
   -1.5816   26.8557   27.3375 O   0  0  0  0  0  0  0  0  0  0  0  0
   -1.7314   25.4012   25.3473 O   0  0  0  0  0  0  0  0  0  0  0  0
    0.5154   25.9366   26.1690 O   0  0  0  0  0  0  0  0  0  0  0  0
  1  2  1  0
  2  3  1  0
  3  4  1  0
  4  5  2  0
  5  6  1  0
  1  6  2  0
  4  7  1  0
  7  8  1  0
  8  9  2  0
  9 10  1  0
  5 10  1  0
  8 11  1  0
 11 12  2  0
 12 13  1  0
 13 14  2  0
  9 14  1  0
  7 15  1  0
 15 16  1  0
 11 17  1  0
 16 17  1  0
  1 18  1  0
 13 19  1  0
 12 20  1  0
 15 21  1  6
 17 22  1  1
 17 23  1  0
 10 24  1  0
  3 25  2  0
 24 26  1  0
 26 27  1  0
 27 28  1  0
 28 29  1  0
 26 30  1  1
 27 31  1  6
 28 32  1  6
 29 33  1  0
 33 34  1  0
 34 35  2  0
 34 36  1  6
 34 37  1  0
M  END
