8ACL_LQL_A_401
     RDKit          3D

 51 54  0  0  0  0  0  0  0  0999 V2000
    9.6818   -1.0126   22.4046 N   0  0  0  0  0  0  0  0  0  0  0  0
   12.2433   -4.3894   21.5133 N   0  0  0  0  0  0  0  0  0  0  0  0
    8.5720    1.5421   16.0689 C   0  0  0  0  0  0  0  0  0  0  0  0
    9.8155    2.0850   16.3654 C   0  0  0  0  0  0  0  0  0  0  0  0
    9.9636    1.4036   22.8102 C   0  0  1  0  0  0  0  0  0  0  0  0
   10.5493    0.1460   22.1519 C   0  0  1  0  0  0  0  0  0  0  0  0
    8.9882   -1.1438   23.6926 C   0  0  2  0  0  0  0  0  0  0  0  0
    9.8660    2.2727   25.1936 C   0  0  0  0  0  0  0  0  0  0  0  0
   10.0946    4.4084   27.0265 C   0  0  0  0  0  0  0  0  0  0  0  0
    8.7834    2.6350   26.0202 C   0  0  0  0  0  0  0  0  0  0  0  0
   10.3011   -3.0699   21.0247 C   0  0  0  0  0  0  0  0  0  0  0  0
   10.9079   -4.9522   19.6186 C   0  0  0  0  0  0  0  0  0  0  0  0
   10.0440   -3.8987   19.9214 C   0  0  0  0  0  0  0  0  0  0  0  0
    8.7018    2.1724   20.7369 N   0  0  0  0  0  0  0  0  0  0  0  0
    8.6799    1.7986   22.1212 C   0  0  0  0  0  0  0  0  0  0  0  0
    7.5868    1.7719   22.7509 O   0  0  0  0  0  0  0  0  0  0  0  0
    7.8030    1.5758   19.7539 C   0  0  1  0  0  0  0  0  0  0  0  0
   11.0681    3.0002   25.3073 C   0  0  0  0  0  0  0  0  0  0  0  0
   11.1841    4.0601   26.2142 C   0  0  0  0  0  0  0  0  0  0  0  0
    8.8995    3.6924   26.9254 C   0  0  0  0  0  0  0  0  0  0  0  0
    9.3846   -1.9532   21.3540 C   0  0  0  0  0  0  0  0  0  0  0  0
   11.4192   -3.3540   21.8268 C   0  0  0  0  0  0  0  0  0  0  0  0
   12.0175   -5.1816   20.4325 C   0  0  0  0  0  0  0  0  0  0  0  0
    8.3747    1.7279   18.3797 C   0  0  0  0  0  0  0  0  0  0  0  0
    7.7663    1.3359   17.1945 C   0  0  0  0  0  0  0  0  0  0  0  0
    9.5704   -0.2028   24.7579 C   0  0  1  0  0  0  0  0  0  0  0  0
    9.7465    1.1730   24.2538 N   0  0  0  0  0  0  0  0  0  0  0  0
    8.3137   -1.8280   20.6990 O   0  0  0  0  0  0  0  0  0  0  0  0
    9.9161    2.3002   18.0306 S   0  0  0  0  0  0  0  0  0  0  0  0
   12.7065    4.9356   26.3089 Cl  0  0  0  0  0  0  0  0  0  0  0  0
   10.2003    5.7327   28.1786 Cl  0  0  0  0  0  0  0  0  0  0  0  0
    8.2589    1.2950   15.0633 H   0  0  0  0  0  0  0  0  0  0  0  0
   10.5894    2.3178   15.6469 H   0  0  0  0  0  0  0  0  0  0  0  0
   10.7066    2.2210   22.6750 H   0  0  0  0  0  0  0  0  0  0  0  0
   11.5548   -0.0498   22.5820 H   0  0  0  0  0  0  0  0  0  0  0  0
   10.6726    0.3191   21.0597 H   0  0  0  0  0  0  0  0  0  0  0  0
    9.0799   -2.1897   24.0580 H   0  0  0  0  0  0  0  0  0  0  0  0
    7.9086   -0.9212   23.5529 H   0  0  0  0  0  0  0  0  0  0  0  0
    7.8480    2.0936   25.9822 H   0  0  0  0  0  0  0  0  0  0  0  0
   10.7179   -5.5861   18.7622 H   0  0  0  0  0  0  0  0  0  0  0  0
    9.1823   -3.7266   19.2903 H   0  0  0  0  0  0  0  0  0  0  0  0
    9.4163    2.8599   20.4069 H   0  0  0  0  0  0  0  0  0  0  0  0
    7.6325    0.5041   19.9940 H   0  0  0  0  0  0  0  0  0  0  0  0
    6.8204    2.0927   19.7907 H   0  0  0  0  0  0  0  0  0  0  0  0
   11.9198    2.7590   24.6881 H   0  0  0  0  0  0  0  0  0  0  0  0
    8.0564    3.9526   27.5528 H   0  0  0  0  0  0  0  0  0  0  0  0
   11.6255   -2.7720   22.7143 H   0  0  0  0  0  0  0  0  0  0  0  0
   12.6948   -5.9954   20.2107 H   0  0  0  0  0  0  0  0  0  0  0  0
    6.7737    0.9078   17.1429 H   0  0  0  0  0  0  0  0  0  0  0  0
    8.8814   -0.2017   25.6306 H   0  0  0  0  0  0  0  0  0  0  0  0
   10.5561   -0.5976   25.0869 H   0  0  0  0  0  0  0  0  0  0  0  0
  3  4  2  0
  1  6  1  0
  5  6  1  0
  1  7  1  0
  8 10  1  0
 12 13  1  0
 11 13  2  0
  5 15  1  0
 14 15  1  0
 15 16  2  0
 14 17  1  0
  8 18  2  0
 18 19  1  0
  9 19  2  0
 10 20  2  0
  9 20  1  0
 11 21  1  0
  1 21  1  0
  2 22  2  0
 11 22  1  0
 12 23  2  0
  2 23  1  0
 17 24  1  0
 24 25  2  0
  3 25  1  0
  7 26  1  0
  5 27  1  0
 26 27  1  0
  8 27  1  0
 21 28  2  0
 24 29  1  0
  4 29  1  0
 19 30  1  0
  9 31  1  0
  3 32  1  0
  4 33  1  0
  5 34  1  1
  6 35  1  1
  6 36  1  0
  7 37  1  1
  7 38  1  0
 10 39  1  0
 12 40  1  0
 13 41  1  0
 14 42  1  0
 17 43  1  1
 17 44  1  0
 18 45  1  0
 20 46  1  0
 22 47  1  0
 23 48  1  0
 25 49  1  0
 26 50  1  1
 26 51  1  0
M  END
