6Z1C_7EY_A_501
     RDKit          3D

 22 24  0  0  0  0  0  0  0  0999 V2000
    5.2654   -4.1265   20.7732 C   0  0  0  0  0  0  0  0  0  0  0  0
    6.3512   -4.5506   21.4830 C   0  0  0  0  0  0  0  0  0  0  0  0
    7.2206   -3.5008   21.8497 C   0  0  0  0  0  0  0  0  0  0  0  0
    6.9394   -2.2240   21.5028 N   0  0  0  0  0  0  0  0  0  0  0  0
    5.0160   -2.8383   20.4414 N   0  0  0  0  0  0  0  0  0  0  0  0
   12.3455   -1.6334   23.1461 O   0  0  0  0  0  0  0  0  0  0  0  0
   11.5688   -0.9992   22.3575 C   0  0  0  0  0  0  0  0  0  0  0  0
   12.0250    0.0977   21.6407 O   0  0  0  0  0  0  0  0  0  0  0  0
   10.1418   -1.4425   22.2004 C   0  0  0  0  0  0  0  0  0  0  0  0
   10.0406   -2.8392   21.7143 C   0  0  0  0  0  0  0  0  0  0  0  0
    8.7911   -3.7536   22.6453 S   0  0  0  0  0  0  0  0  0  0  0  0
    5.8734   -1.8582   20.8152 C   0  0  0  0  0  0  0  0  0  0  0  0
    4.2911   -5.5286   20.4033 S   0  0  0  0  0  0  0  0  0  0  0  0
    5.4057   -6.6662   21.2440 C   0  0  0  0  0  0  0  0  0  0  0  0
    6.4651   -5.8591   21.7551 C   0  0  0  0  0  0  0  0  0  0  0  0
    7.4712   -6.5939   22.5795 C   0  0  0  0  0  0  0  0  0  0  0  0
    8.6953   -6.9077   22.0284 C   0  0  0  0  0  0  0  0  0  0  0  0
    9.6437   -7.5823   22.7729 C   0  0  0  0  0  0  0  0  0  0  0  0
    9.3837   -7.9507   24.0756 C   0  0  0  0  0  0  0  0  0  0  0  0
   10.4119   -8.6790   24.8735 C   0  0  0  0  0  0  0  0  0  0  0  0
    8.1406   -7.6232   24.6144 C   0  0  0  0  0  0  0  0  0  0  0  0
    7.1807   -6.9458   23.8738 C   0  0  0  0  0  0  0  0  0  0  0  0
  1  2  1  0
  2  3  2  0
  3  4  1  0
  1  5  2  0
  6  7  2  0
  7  8  1  0
  9  7  1  6
  9 10  1  0
  3 11  1  0
 10 11  1  1
  4 12  2  0
  5 12  1  0
  1 13  1  0
 13 14  1  0
  2 15  1  0
 14 15  2  0
 15 16  1  0
 16 17  2  0
 17 18  1  0
 18 19  2  0
 20 19  1  6
 19 21  1  0
 16 22  1  0
 21 22  2  0
M  END
$$$$
