
     RDKit          3D

 20 21  0  0  0  0  0  0  0  0999 V2000
   -3.3728  -16.8725    1.8393 C   0  0  0  0  0  0  0  0  0  0  0  0
   -3.0019  -17.6325    0.7314 C   0  0  0  0  0  0  0  0  0  0  0  0
   -2.5905  -18.9371    1.0253 C   0  0  0  0  0  0  0  0  0  0  0  0
   -2.5402  -19.4275    2.2719 N   0  0  0  0  0  0  0  0  0  0  0  0
   -3.3375  -17.3665    3.0999 N   0  0  0  0  0  0  0  0  0  0  0  0
   -0.9140  -12.6896   -1.8223 C   0  0  0  0  0  0  0  0  0  0  0  0
   -2.3068  -12.9945   -1.2932 C   0  0  0  0  0  0  0  0  0  0  0  0
   -2.3824  -12.7973    0.2208 C   0  0  0  0  0  0  0  0  0  0  0  0
   -1.8813  -14.0070    1.0151 C   0  0  0  0  0  0  0  0  0  0  0  0
   -2.8169  -14.4091    2.1597 C   0  0  0  0  0  0  0  0  0  0  0  0
   -3.8649  -15.4464    1.7347 C   0  0  0  0  0  0  0  0  0  0  0  0
   -2.8999  -18.6147    3.2606 C   0  0  0  0  0  0  0  0  0  0  0  0
   -2.8680  -19.1181    4.5447 N   0  0  0  0  0  0  0  0  0  0  0  0
   -2.1952  -19.8229    0.0026 N   0  0  0  0  0  0  0  0  0  0  0  0
   -3.0410  -17.1272   -0.6463 C   0  0  0  0  0  0  0  0  0  0  0  0
   -1.9059  -16.5394   -1.2272 C   0  0  0  0  0  0  0  0  0  0  0  0
   -1.9401  -16.0703   -2.5419 C   0  0  0  0  0  0  0  0  0  0  0  0
   -3.1074  -16.1868   -3.2933 C   0  0  0  0  0  0  0  0  0  0  0  0
   -4.2419  -16.7701   -2.7328 C   0  0  0  0  0  0  0  0  0  0  0  0
   -4.2095  -17.2379   -1.4171 C   0  0  0  0  0  0  0  0  0  0  0  0
  1  2  4  0
  2  3  4  0
  3  4  4  0
  1  5  4  0
  6  7  1  0
  7  8  1  0
  8  9  1  0
  9 10  1  0
 10 11  1  0
  1 11  1  0
  5 12  4  0
  4 12  4  0
 12 13  1  0
  3 14  1  0
  2 15  1  0
 15 16  4  0
 16 17  4  0
 17 18  4  0
 18 19  4  0
 15 20  4  0
 19 20  4  0
M  END
