1T40_ID5_A_320
     RDKit          3D

 28 30  0  0  0  0  0  0  0  0999 V2000
   27.3051  -12.6585   28.6021 C   0  0  0  0  0  0  0  0  0  0  0  0
   24.7629  -11.7271   28.8546 C   0  0  0  0  0  0  0  0  0  0  0  0
   27.0675  -11.2975   28.8339 C   0  0  0  0  0  0  0  0  0  0  0  0
   26.2691  -13.5617   28.4950 C   0  0  0  0  0  0  0  0  0  0  0  0
   24.9931  -13.0630   28.6269 C   0  0  0  0  0  0  0  0  0  0  0  0
   25.8003  -10.7931   28.9665 C   0  0  0  0  0  0  0  0  0  0  0  0
   27.9585   -7.4166   35.8923 F   0  0  0  0  0  0  0  0  0  0  0  0
   26.4398  -14.8809   28.2723 F   0  0  0  0  0  0  0  0  0  0  0  0
   25.4485   -9.4165   29.2056 C   0  0  0  0  0  0  0  0  0  0  0  0
   24.4783   -7.2683   31.1560 C   0  0  0  0  0  0  0  0  0  0  0  0
   24.2020   -4.6287   35.1789 F   0  0  0  0  0  0  0  0  0  0  0  0
   28.1443  -10.4837   28.9257 O   0  0  0  0  0  0  0  0  0  0  0  0
   26.4055   -8.5692   29.2846 O   0  0  0  0  0  0  0  0  0  0  0  0
   23.8765   -7.5306   29.8181 C   0  0  0  0  0  0  0  0  0  0  0  0
   29.4979  -10.7959   28.9496 C   0  0  0  0  0  0  0  0  0  0  0  0
   25.3336   -7.5858   31.8495 N   0  0  0  0  0  0  0  0  0  0  0  0
   23.6539   -5.9108   32.2476 S   0  0  0  0  0  0  0  0  0  0  0  0
   27.6346   -8.5634   33.5086 F   0  0  0  0  0  0  0  0  0  0  0  0
   24.9147   -6.2000   33.5694 C   0  0  0  0  0  0  0  0  0  0  0  0
   26.9185   -7.0055   35.0910 C   0  0  0  0  0  0  0  0  0  0  0  0
   25.7099   -7.1922   33.0473 C   0  0  0  0  0  0  0  0  0  0  0  0
   25.0577   -5.5845   34.8044 C   0  0  0  0  0  0  0  0  0  0  0  0
   26.1208   -6.0218   35.5950 C   0  0  0  0  0  0  0  0  0  0  0  0
   26.7646   -7.6070   33.8636 C   0  0  0  0  0  0  0  0  0  0  0  0
   30.4232   -9.6644   29.0199 C   0  0  0  0  0  0  0  0  0  0  0  0
   31.8057   -9.7512   28.9650 O   0  0  0  0  0  0  0  0  0  0  0  0
   29.9214   -8.5007   29.1406 O   0  0  0  0  0  0  0  0  0  0  0  0
   24.1571   -8.8851   29.3650 N   0  0  0  0  0  0  0  0  0  0  0  0
  1  3  2  0
  1  4  1  0
  2  5  1  0
  4  5  2  0
  2  6  2  0
  3  6  1  0
  4  8  1  0
  6  9  1  0
  3 12  1  0
  9 13  2  0
 10 14  1  0
 12 15  1  0
 10 16  2  0
 10 17  1  0
 17 19  1  0
  7 20  1  0
 16 21  1  0
 19 21  2  0
 11 22  1  0
 19 22  1  0
 20 23  1  0
 22 23  2  0
 18 24  1  0
 20 24  2  0
 21 24  1  0
 15 25  1  0
 25 26  1  0
 25 27  2  0
  9 28  1  0
 14 28  1  0
M  END
$$$$
