1T40_ID5_A_320
     RDKit          3D

 28 30  0  0  0  0  0  0  0  0999 V2000
   15.9235   -5.2161   20.2136 C   0  0  0  0  0  0  0  0  0  0  0  0
   15.6973   -5.0294   17.5102 C   0  0  0  0  0  0  0  0  0  0  0  0
   17.0000   -5.5601   19.3857 C   0  0  0  0  0  0  0  0  0  0  0  0
   14.7260   -4.7764   19.6912 C   0  0  0  0  0  0  0  0  0  0  0  0
   14.6393   -4.6914   18.3201 C   0  0  0  0  0  0  0  0  0  0  0  0
   16.9218   -5.4783   18.0200 C   0  0  0  0  0  0  0  0  0  0  0  0
   18.4034  -13.2214   16.2058 F   0  0  0  0  0  0  0  0  0  0  0  0
   13.6583   -4.4326   20.4401 F   0  0  0  0  0  0  0  0  0  0  0  0
   17.9657   -5.8063   17.0826 C   0  0  0  0  0  0  0  0  0  0  0  0
   19.1684   -7.5405   14.8989 C   0  0  0  0  0  0  0  0  0  0  0  0
   21.9230  -11.3056   13.6888 F   0  0  0  0  0  0  0  0  0  0  0  0
   18.1375   -5.9810   19.9850 O   0  0  0  0  0  0  0  0  0  0  0  0
   19.0203   -6.3650   17.5470 O   0  0  0  0  0  0  0  0  0  0  0  0
   18.9882   -6.0657   14.7826 C   0  0  0  0  0  0  0  0  0  0  0  0
   18.4410   -6.1025   21.3354 C   0  0  0  0  0  0  0  0  0  0  0  0
   18.6923   -8.4857   15.3384 N   0  0  0  0  0  0  0  0  0  0  0  0
   20.7052   -8.3164   14.0326 S   0  0  0  0  0  0  0  0  0  0  0  0
   17.2848  -10.8305   16.5728 F   0  0  0  0  0  0  0  0  0  0  0  0
   20.1867   -9.9967   14.6052 C   0  0  0  0  0  0  0  0  0  0  0  0
   19.0080  -12.1123   15.6609 C   0  0  0  0  0  0  0  0  0  0  0  0
   19.0295   -9.7572   15.3073 C   0  0  0  0  0  0  0  0  0  0  0  0
   20.7924  -11.2273   14.3972 C   0  0  0  0  0  0  0  0  0  0  0  0
   20.1569  -12.3338   14.9615 C   0  0  0  0  0  0  0  0  0  0  0  0
   18.4186  -10.8854   15.8590 C   0  0  0  0  0  0  0  0  0  0  0  0
   19.8049   -6.5231   21.6582 C   0  0  0  0  0  0  0  0  0  0  0  0
   20.3339   -6.6264   22.9355 O   0  0  0  0  0  0  0  0  0  0  0  0
   20.5736   -6.8212   20.6884 O   0  0  0  0  0  0  0  0  0  0  0  0
   17.9627   -5.5816   15.6951 N   0  0  0  0  0  0  0  0  0  0  0  0
  1  3  2  0
  1  4  1  0
  2  5  1  0
  4  5  2  0
  2  6  2  0
  3  6  1  0
  4  8  1  0
  6  9  1  0
  3 12  1  0
  9 13  2  0
 10 14  1  0
 12 15  1  0
 10 16  2  0
 10 17  1  0
 17 19  1  0
  7 20  1  0
 16 21  1  0
 19 21  2  0
 11 22  1  0
 19 22  1  0
 20 23  1  0
 22 23  2  0
 18 24  1  0
 20 24  2  0
 21 24  1  0
 15 25  1  0
 25 26  1  0
 25 27  2  0
  9 28  1  0
 14 28  1  0
M  END
$$$$
