1T40_ID5_A_320
     RDKit          3D

 28 30  0  0  0  0  0  0  0  0999 V2000
   15.3364  -16.1447   15.7723 C   0  0  0  0  0  0  0  0  0  0  0  0
   13.8169  -13.9094   15.4742 C   0  0  0  0  0  0  0  0  0  0  0  0
   15.6265  -14.9862   16.5047 C   0  0  0  0  0  0  0  0  0  0  0  0
   14.2822  -16.1899   14.8851 C   0  0  0  0  0  0  0  0  0  0  0  0
   13.5301  -15.0446   14.7541 C   0  0  0  0  0  0  0  0  0  0  0  0
   14.8826  -13.8422   16.3801 C   0  0  0  0  0  0  0  0  0  0  0  0
   19.8632   -6.6771   13.7751 F   0  0  0  0  0  0  0  0  0  0  0  0
   13.9581  -17.2765   14.1550 F   0  0  0  0  0  0  0  0  0  0  0  0
   15.0955  -12.6029   17.0836 C   0  0  0  0  0  0  0  0  0  0  0  0
   15.9274   -9.6924   16.9346 C   0  0  0  0  0  0  0  0  0  0  0  0
   20.6790  -10.4098   16.5668 F   0  0  0  0  0  0  0  0  0  0  0  0
   16.6793  -15.0326   17.3530 O   0  0  0  0  0  0  0  0  0  0  0  0
   16.1508  -12.5075   17.8027 O   0  0  0  0  0  0  0  0  0  0  0  0
   14.6629  -10.1580   17.5714 C   0  0  0  0  0  0  0  0  0  0  0  0
   17.6094  -16.0427   17.5648 C   0  0  0  0  0  0  0  0  0  0  0  0
   16.3530   -8.9003   16.2243 N   0  0  0  0  0  0  0  0  0  0  0  0
   17.5433  -10.6473   17.3717 S   0  0  0  0  0  0  0  0  0  0  0  0
   17.2602   -6.7466   14.3424 F   0  0  0  0  0  0  0  0  0  0  0  0
   18.5155   -9.5120   16.2825 C   0  0  0  0  0  0  0  0  0  0  0  0
   19.3939   -7.6448   14.6328 C   0  0  0  0  0  0  0  0  0  0  0  0
   17.5680   -8.6487   15.7862 C   0  0  0  0  0  0  0  0  0  0  0  0
   19.8750   -9.5012   16.0064 C   0  0  0  0  0  0  0  0  0  0  0  0
   20.3219   -8.5088   15.1335 C   0  0  0  0  0  0  0  0  0  0  0  0
   18.0481   -7.6677   14.9158 C   0  0  0  0  0  0  0  0  0  0  0  0
   18.6260  -15.7846   18.5852 C   0  0  0  0  0  0  0  0  0  0  0  0
   19.6613  -16.6420   18.9243 O   0  0  0  0  0  0  0  0  0  0  0  0
   18.5591  -14.6811   19.2163 O   0  0  0  0  0  0  0  0  0  0  0  0
   14.2674  -11.4673   17.0734 N   0  0  0  0  0  0  0  0  0  0  0  0
  1  3  2  0
  1  4  1  0
  2  5  1  0
  4  5  2  0
  2  6  2  0
  3  6  1  0
  4  8  1  0
  6  9  1  0
  3 12  1  0
  9 13  2  0
 10 14  1  0
 12 15  1  0
 10 16  2  0
 10 17  1  0
 17 19  1  0
  7 20  1  0
 16 21  1  0
 19 21  2  0
 11 22  1  0
 19 22  1  0
 20 23  1  0
 22 23  2  0
 18 24  1  0
 20 24  2  0
 21 24  1  0
 15 25  1  0
 25 26  1  0
 25 27  2  0
  9 28  1  0
 14 28  1  0
M  END
$$$$
