1T40_ID5_A_320
     RDKit          3D

 28 30  0  0  0  0  0  0  0  0999 V2000
   18.2759  -17.4408   14.7195 C   0  0  0  0  0  0  0  0  0  0  0  0
   17.3108  -15.4609   13.1249 C   0  0  0  0  0  0  0  0  0  0  0  0
   18.2303  -16.1181   15.1788 C   0  0  0  0  0  0  0  0  0  0  0  0
   17.8379  -17.7794   13.4570 C   0  0  0  0  0  0  0  0  0  0  0  0
   17.3546  -16.7578   12.6715 C   0  0  0  0  0  0  0  0  0  0  0  0
   17.7505  -15.0954   14.4032 C   0  0  0  0  0  0  0  0  0  0  0  0
   24.2476  -10.6851   12.7746 F   0  0  0  0  0  0  0  0  0  0  0  0
   17.8589  -19.0346   12.9638 F   0  0  0  0  0  0  0  0  0  0  0  0
   17.6606  -13.7072   14.7785 C   0  0  0  0  0  0  0  0  0  0  0  0
   18.5207  -10.8100   14.0985 C   0  0  0  0  0  0  0  0  0  0  0  0
   21.4324   -6.9919   13.6841 F   0  0  0  0  0  0  0  0  0  0  0  0
   18.6803  -15.8777   16.4318 O   0  0  0  0  0  0  0  0  0  0  0  0
   18.2702  -13.3445   15.8447 O   0  0  0  0  0  0  0  0  0  0  0  0
   17.1292  -11.2663   14.3751 C   0  0  0  0  0  0  0  0  0  0  0  0
   19.1026  -16.7662   17.4130 C   0  0  0  0  0  0  0  0  0  0  0  0
   19.5681  -11.1887   13.8287 N   0  0  0  0  0  0  0  0  0  0  0  0
   18.8580   -8.9133   14.1507 S   0  0  0  0  0  0  0  0  0  0  0  0
   22.2278  -12.3875   13.1273 F   0  0  0  0  0  0  0  0  0  0  0  0
   20.6313   -9.2111   13.7176 C   0  0  0  0  0  0  0  0  0  0  0  0
   23.0062  -10.1882   13.0977 C   0  0  0  0  0  0  0  0  0  0  0  0
   20.7121  -10.5785   13.6046 C   0  0  0  0  0  0  0  0  0  0  0  0
   21.6627   -8.3004   13.5403 C   0  0  0  0  0  0  0  0  0  0  0  0
   22.9100   -8.8334   13.2134 C   0  0  0  0  0  0  0  0  0  0  0  0
   21.9739  -11.0794   13.2765 C   0  0  0  0  0  0  0  0  0  0  0  0
   19.5730  -16.1735   18.6655 C   0  0  0  0  0  0  0  0  0  0  0  0
   20.0177  -16.8797   19.7725 O   0  0  0  0  0  0  0  0  0  0  0  0
   19.5771  -14.9034   18.7502 O   0  0  0  0  0  0  0  0  0  0  0  0
   16.9709  -12.6870   14.1009 N   0  0  0  0  0  0  0  0  0  0  0  0
  1  3  2  0
  1  4  1  0
  2  5  1  0
  4  5  2  0
  2  6  2  0
  3  6  1  0
  4  8  1  0
  6  9  1  0
  3 12  1  0
  9 13  2  0
 10 14  1  0
 12 15  1  0
 10 16  2  0
 10 17  1  0
 17 19  1  0
  7 20  1  0
 16 21  1  0
 19 21  2  0
 11 22  1  0
 19 22  1  0
 20 23  1  0
 22 23  2  0
 18 24  1  0
 20 24  2  0
 21 24  1  0
 15 25  1  0
 25 26  1  0
 25 27  2  0
  9 28  1  0
 14 28  1  0
M  END
$$$$
