1T40_ID5_A_320
     RDKit          3D

 28 30  0  0  0  0  0  0  0  0999 V2000
   14.9729  -14.9844   18.3957 C   0  0  0  0  0  0  0  0  0  0  0  0
   13.3527  -13.5299   16.7667 C   0  0  0  0  0  0  0  0  0  0  0  0
   15.4909  -14.3582   17.2546 C   0  0  0  0  0  0  0  0  0  0  0  0
   13.6384  -14.8856   18.7273 C   0  0  0  0  0  0  0  0  0  0  0  0
   12.8415  -14.1435   17.8855 C   0  0  0  0  0  0  0  0  0  0  0  0
   14.7044  -13.6176   16.4115 C   0  0  0  0  0  0  0  0  0  0  0  0
   17.8096   -6.1256   17.2966 F   0  0  0  0  0  0  0  0  0  0  0  0
   13.0867  -15.4672   19.8120 F   0  0  0  0  0  0  0  0  0  0  0  0
   15.1359  -12.9359   15.2177 C   0  0  0  0  0  0  0  0  0  0  0  0
   15.5465  -10.2196   13.7353 C   0  0  0  0  0  0  0  0  0  0  0  0
   18.1771   -6.3488   12.5841 F   0  0  0  0  0  0  0  0  0  0  0  0
   16.8124  -14.5082   17.0071 O   0  0  0  0  0  0  0  0  0  0  0  0
   16.3895  -12.9426   14.9562 O   0  0  0  0  0  0  0  0  0  0  0  0
   14.8425  -11.4237   13.2103 C   0  0  0  0  0  0  0  0  0  0  0  0
   17.7851  -15.1804   17.7367 C   0  0  0  0  0  0  0  0  0  0  0  0
   15.8021   -9.6622   14.7033 N   0  0  0  0  0  0  0  0  0  0  0  0
   16.4246   -9.0781   12.4546 S   0  0  0  0  0  0  0  0  0  0  0  0
   16.3578   -8.3598   17.3487 F   0  0  0  0  0  0  0  0  0  0  0  0
   16.9927   -7.9708   13.8227 C   0  0  0  0  0  0  0  0  0  0  0  0
   17.5256   -6.7633   16.1112 C   0  0  0  0  0  0  0  0  0  0  0  0
   16.4849   -8.5655   14.9531 C   0  0  0  0  0  0  0  0  0  0  0  0
   17.7503   -6.8101   13.7635 C   0  0  0  0  0  0  0  0  0  0  0  0
   18.0224   -6.1854   14.9810 C   0  0  0  0  0  0  0  0  0  0  0  0
   16.7752   -7.9153   16.1546 C   0  0  0  0  0  0  0  0  0  0  0  0
   19.1454  -15.1359   17.1992 C   0  0  0  0  0  0  0  0  0  0  0  0
   20.2522  -15.7556   17.7586 O   0  0  0  0  0  0  0  0  0  0  0  0
   19.3331  -14.4749   16.1276 O   0  0  0  0  0  0  0  0  0  0  0  0
   14.3296  -12.2531   14.2909 N   0  0  0  0  0  0  0  0  0  0  0  0
  1  3  2  0
  1  4  1  0
  2  5  1  0
  4  5  2  0
  2  6  2  0
  3  6  1  0
  4  8  1  0
  6  9  1  0
  3 12  1  0
  9 13  2  0
 10 14  1  0
 12 15  1  0
 10 16  2  0
 10 17  1  0
 17 19  1  0
  7 20  1  0
 16 21  1  0
 19 21  2  0
 11 22  1  0
 19 22  1  0
 20 23  1  0
 22 23  2  0
 18 24  1  0
 20 24  2  0
 21 24  1  0
 15 25  1  0
 25 26  1  0
 25 27  2  0
  9 28  1  0
 14 28  1  0
M  END
$$$$
