1T40_ID5_A_320
     RDKit          3D

 28 30  0  0  0  0  0  0  0  0999 V2000
   17.6968  -15.7120   15.2109 C   0  0  0  0  0  0  0  0  0  0  0  0
   16.9232  -14.2218   17.3498 C   0  0  0  0  0  0  0  0  0  0  0  0
   18.3579  -14.5161   15.5193 C   0  0  0  0  0  0  0  0  0  0  0  0
   16.6427  -16.1686   15.9731 C   0  0  0  0  0  0  0  0  0  0  0  0
   16.2724  -15.3947   17.0494 C   0  0  0  0  0  0  0  0  0  0  0  0
   17.9955  -13.7400   16.5890 C   0  0  0  0  0  0  0  0  0  0  0  0
   15.7878   -6.9010   12.6257 F   0  0  0  0  0  0  0  0  0  0  0  0
   15.9709  -17.3109   15.7224 F   0  0  0  0  0  0  0  0  0  0  0  0
   18.6070  -12.4990   16.9913 C   0  0  0  0  0  0  0  0  0  0  0  0
   18.4604   -9.4923   17.1764 C   0  0  0  0  0  0  0  0  0  0  0  0
   20.0743   -5.9191   14.3735 F   0  0  0  0  0  0  0  0  0  0  0  0
   19.3822  -14.1454   14.7169 O   0  0  0  0  0  0  0  0  0  0  0  0
   19.5371  -12.0316   16.2453 O   0  0  0  0  0  0  0  0  0  0  0  0
   18.7639  -10.3666   18.3445 C   0  0  0  0  0  0  0  0  0  0  0  0
   19.8365  -14.7120   13.5324 C   0  0  0  0  0  0  0  0  0  0  0  0
   17.6537   -9.2596   16.3964 N   0  0  0  0  0  0  0  0  0  0  0  0
   19.7989   -8.2045   16.6621 S   0  0  0  0  0  0  0  0  0  0  0  0
   15.4175   -8.8112   14.4468 F   0  0  0  0  0  0  0  0  0  0  0  0
   18.7050   -7.6043   15.2969 C   0  0  0  0  0  0  0  0  0  0  0  0
   16.7821   -7.1479   13.5439 C   0  0  0  0  0  0  0  0  0  0  0  0
   17.5832   -8.3904   15.4111 C   0  0  0  0  0  0  0  0  0  0  0  0
   18.9268   -6.6041   14.3616 C   0  0  0  0  0  0  0  0  0  0  0  0
   17.9013   -6.3762   13.4435 C   0  0  0  0  0  0  0  0  0  0  0  0
   16.5760   -8.1369   14.4774 C   0  0  0  0  0  0  0  0  0  0  0  0
   20.9152  -14.0009   12.8454 C   0  0  0  0  0  0  0  0  0  0  0  0
   21.5246  -14.4071   11.6683 O   0  0  0  0  0  0  0  0  0  0  0  0
   21.3317  -12.9174   13.3678 O   0  0  0  0  0  0  0  0  0  0  0  0
   18.2979  -11.7280   18.1250 N   0  0  0  0  0  0  0  0  0  0  0  0
  1  3  2  0
  1  4  1  0
  2  5  1  0
  4  5  2  0
  2  6  2  0
  3  6  1  0
  4  8  1  0
  6  9  1  0
  3 12  1  0
  9 13  2  0
 10 14  1  0
 12 15  1  0
 10 16  2  0
 10 17  1  0
 17 19  1  0
  7 20  1  0
 16 21  1  0
 19 21  2  0
 11 22  1  0
 19 22  1  0
 20 23  1  0
 22 23  2  0
 18 24  1  0
 20 24  2  0
 21 24  1  0
 15 25  1  0
 25 26  1  0
 25 27  2  0
  9 28  1  0
 14 28  1  0
M  END
$$$$
