1U1C_BAU_F_5051
     RDKit          3D

 20 21  0  0  0  0  0  0  0  0999 V2000
  -12.2956  129.8707   95.7767 O   0  0  0  0  0  0  0  0  0  0  0  0
  -11.0202  129.7733   95.2184 C   0  0  0  0  0  0  0  0  0  0  0  0
  -11.0554  128.4960   94.3563 C   0  0  0  0  0  0  0  0  0  0  0  0
  -10.7479  127.3928   95.1017 O   0  0  0  0  0  0  0  0  0  0  0  0
  -10.8007  126.2113   94.4114 C   0  0  0  0  0  0  0  0  0  0  0  0
  -12.0766  125.9459   93.7833 N   0  0  0  0  0  0  0  0  0  0  0  0
  -12.2416  125.8944   92.4497 C   0  0  0  0  0  0  0  0  0  0  0  0
  -11.2924  126.0866   91.6646 O   0  0  0  0  0  0  0  0  0  0  0  0
  -13.4452  125.6331   91.9176 N   0  0  0  0  0  0  0  0  0  0  0  0
  -14.5350  125.4128   92.6981 C   0  0  0  0  0  0  0  0  0  0  0  0
  -15.6387  125.1724   92.1749 O   0  0  0  0  0  0  0  0  0  0  0  0
  -13.1360  125.7325   94.5804 C   0  0  0  0  0  0  0  0  0  0  0  0
  -14.4086  125.4573   94.0684 C   0  0  0  0  0  0  0  0  0  0  0  0
  -15.5368  125.2342   95.0074 C   0  0  0  0  0  0  0  0  0  0  0  0
  -16.1361  126.4743   95.5032 C   0  0  0  0  0  0  0  0  0  0  0  0
  -15.6556  127.2100   96.5717 C   0  0  0  0  0  0  0  0  0  0  0  0
  -16.2621  128.3710   96.9999 C   0  0  0  0  0  0  0  0  0  0  0  0
  -17.3878  128.8485   96.3686 C   0  0  0  0  0  0  0  0  0  0  0  0
  -17.8997  128.1310   95.2863 C   0  0  0  0  0  0  0  0  0  0  0  0
  -17.2760  126.9722   94.8758 C   0  0  0  0  0  0  0  0  0  0  0  0
  2  1  1  1
  2  3  1  0
  3  4  1  1
  5  4  1  6
  5  6  1  0
  6  7  1  0
  7  8  2  0
  7  9  1  0
  9 10  1  0
 10 11  2  0
  6 12  1  0
 10 13  1  0
 12 13  2  0
 14 13  1  6
 14 15  1  0
 15 16  2  0
 16 17  1  0
 17 18  2  0
 18 19  1  0
 15 20  1  0
 19 20  2  0
M  END
$$$$
