6ZT2_QPK_A_303
     RDKit          3D

 10 10  0  0  0  0  0  0  0  0999 V2000
  -10.3106   31.3700  -14.5748 C   0  0  0  0  0  0  0  0  0  0  0  0
   -9.1252   31.4194  -15.2898 C   0  0  0  0  0  0  0  0  0  0  0  0
   -7.9472   31.0147  -14.6954 C   0  0  0  0  0  0  0  0  0  0  0  0
   -7.9089   30.5744  -13.3778 C   0  0  0  0  0  0  0  0  0  0  0  0
   -9.1163   30.5629  -12.6902 C   0  0  0  0  0  0  0  0  0  0  0  0
  -10.3099   30.9365  -13.2619 C   0  0  0  0  0  0  0  0  0  0  0  0
   -6.7428   30.2049  -12.7970 O   0  0  0  0  0  0  0  0  0  0  0  0
   -9.0833   30.2319  -11.3815 F   0  0  0  0  0  0  0  0  0  0  0  0
   -6.8051   31.0465  -15.4078 F   0  0  0  0  0  0  0  0  0  0  0  0
   -9.0971   32.0378  -16.9085 Cl  0  0  0  0  0  0  0  0  0  0  0  0
  1  2  2  0
  2  3  1  0
  3  4  2  0
  4  5  1  0
  1  6  1  0
  5  6  2  0
  4  7  1  0
  5  8  1  0
  3  9  1  0
  2 10  1  0
M  END
