1UOU_CMU_A_1481
     RDKit          3D

 16 17  0  0  0  0  0  0  0  0999 V2000
   -7.3563  -12.5482   33.3803 Cl  0  0  0  0  0  0  0  0  0  0  0  0
   -7.8803  -14.1324   32.8134 C   0  0  0  0  0  0  0  0  0  0  0  0
   -8.0071  -14.3488   31.4305 C   0  0  0  0  0  0  0  0  0  0  0  0
   -7.7217  -13.2264   30.5448 C   0  0  0  0  0  0  0  0  0  0  0  0
   -8.2392  -13.3274   29.1982 N   0  0  0  0  0  0  0  0  0  0  0  0
   -9.0751  -14.3702   28.6256 C   0  0  0  0  0  0  0  0  0  0  0  0
  -10.0731  -13.6212   27.7408 C   0  0  0  0  0  0  0  0  0  0  0  0
   -9.3637  -12.3553   27.3910 C   0  0  0  0  0  0  0  0  0  0  0  0
   -8.0702  -12.3878   28.1182 C   0  0  0  0  0  0  0  0  0  0  0  0
   -6.9731  -11.7393   27.8951 N   0  0  0  0  0  0  0  0  0  0  0  0
   -8.3953  -15.5750   31.0737 N   0  0  0  0  0  0  0  0  0  0  0  0
   -8.6511  -16.5434   31.9820 C   0  0  0  0  0  0  0  0  0  0  0  0
   -9.0208  -17.7114   31.6347 O   0  0  0  0  0  0  0  0  0  0  0  0
   -8.5336  -16.3422   33.3126 N   0  0  0  0  0  0  0  0  0  0  0  0
   -8.1503  -15.1414   33.7223 C   0  0  0  0  0  0  0  0  0  0  0  0
   -8.0209  -14.8794   34.9517 O   0  0  0  0  0  0  0  0  0  0  0  0
  1  2  1  0
  2  3  2  0
  3  4  1  0
  4  5  1  0
  5  6  1  0
  6  7  1  0
  7  8  1  0
  5  9  1  0
  8  9  1  0
  9 10  2  0
  3 11  1  0
 11 12  1  0
 12 13  2  0
 12 14  1  0
  2 15  1  0
 14 15  1  0
 15 16  2  0
M  END
$$$$
