1UOU_CMU_A_1481
     RDKit          3D

 16 17  0  0  0  0  0  0  0  0999 V2000
   -4.5791    4.1112   30.7689 Cl  0  0  0  0  0  0  0  0  0  0  0  0
   -3.4254    2.7814   30.6893 C   0  0  0  0  0  0  0  0  0  0  0  0
   -3.3110    2.0551   29.4915 C   0  0  0  0  0  0  0  0  0  0  0  0
   -4.1856    2.4345   28.3883 C   0  0  0  0  0  0  0  0  0  0  0  0
   -4.4107    1.4268   27.3758 N   0  0  0  0  0  0  0  0  0  0  0  0
   -4.9358    0.0808   27.5391 C   0  0  0  0  0  0  0  0  0  0  0  0
   -5.8556   -0.1225   26.3340 C   0  0  0  0  0  0  0  0  0  0  0  0
   -5.3127    0.8135   25.3056 C   0  0  0  0  0  0  0  0  0  0  0  0
   -4.1959    1.5441   25.9552 C   0  0  0  0  0  0  0  0  0  0  0  0
   -3.1997    2.1804   25.4293 N   0  0  0  0  0  0  0  0  0  0  0  0
   -2.4088    1.0714   29.4996 N   0  0  0  0  0  0  0  0  0  0  0  0
   -1.6569    0.7914   30.5878 C   0  0  0  0  0  0  0  0  0  0  0  0
   -0.7976   -0.1484   30.5886 O   0  0  0  0  0  0  0  0  0  0  0  0
   -1.7627    1.4836   31.7430 N   0  0  0  0  0  0  0  0  0  0  0  0
   -2.6439    2.4725   31.7897 C   0  0  0  0  0  0  0  0  0  0  0  0
   -2.7996    3.1619   32.8372 O   0  0  0  0  0  0  0  0  0  0  0  0
  1  2  1  0
  2  3  2  0
  3  4  1  0
  4  5  1  0
  5  6  1  0
  6  7  1  0
  7  8  1  0
  5  9  1  0
  8  9  1  0
  9 10  2  0
  3 11  1  0
 11 12  1  0
 12 13  2  0
 12 14  1  0
  2 15  1  0
 14 15  1  0
 15 16  2  0
M  END
$$$$
