1UOU_CMU_A_1481
     RDKit          3D

 16 17  0  0  0  0  0  0  0  0999 V2000
   -4.6129    4.1118   30.8122 Cl  0  0  0  0  0  0  0  0  0  0  0  0
   -3.4432    2.8007   30.6753 C   0  0  0  0  0  0  0  0  0  0  0  0
   -3.3590    2.0922   29.4643 C   0  0  0  0  0  0  0  0  0  0  0  0
   -4.2760    2.4731   28.3967 C   0  0  0  0  0  0  0  0  0  0  0  0
   -4.3561    1.5693   27.2706 N   0  0  0  0  0  0  0  0  0  0  0  0
   -5.0220    0.2792   27.1908 C   0  0  0  0  0  0  0  0  0  0  0  0
   -5.6614    0.2612   25.8014 C   0  0  0  0  0  0  0  0  0  0  0  0
   -4.8200    1.2037   25.0064 C   0  0  0  0  0  0  0  0  0  0  0  0
   -3.8176    1.7628   25.9475 C   0  0  0  0  0  0  0  0  0  0  0  0
   -2.6761    2.3241   25.7114 N   0  0  0  0  0  0  0  0  0  0  0  0
   -2.4428    1.1222   29.4284 N   0  0  0  0  0  0  0  0  0  0  0  0
   -1.6503    0.8392   30.4866 C   0  0  0  0  0  0  0  0  0  0  0  0
   -0.7778   -0.0874   30.4454 O   0  0  0  0  0  0  0  0  0  0  0  0
   -1.7269    1.5142   31.6542 N   0  0  0  0  0  0  0  0  0  0  0  0
   -2.6204    2.4890   31.7443 C   0  0  0  0  0  0  0  0  0  0  0  0
   -2.7505    3.1620   32.8059 O   0  0  0  0  0  0  0  0  0  0  0  0
  1  2  1  0
  2  3  2  0
  3  4  1  0
  4  5  1  0
  5  6  1  0
  6  7  1  0
  7  8  1  0
  5  9  1  0
  8  9  1  0
  9 10  2  0
  3 11  1  0
 11 12  1  0
 12 13  2  0
 12 14  1  0
  2 15  1  0
 14 15  1  0
 15 16  2  0
M  END
$$$$
