1UOU_CMU_A_1481
     RDKit          3D

 16 17  0  0  0  0  0  0  0  0999 V2000
   -4.0985    3.9499   30.2991 Cl  0  0  0  0  0  0  0  0  0  0  0  0
   -3.0002    2.5728   30.2436 C   0  0  0  0  0  0  0  0  0  0  0  0
   -2.8048    1.9115   29.0189 C   0  0  0  0  0  0  0  0  0  0  0  0
   -3.5547    2.3952   27.8658 C   0  0  0  0  0  0  0  0  0  0  0  0
   -3.1304    1.9009   26.5747 N   0  0  0  0  0  0  0  0  0  0  0  0
   -1.8212    2.0056   25.9509 C   0  0  0  0  0  0  0  0  0  0  0  0
   -1.6065    0.6497   25.2764 C   0  0  0  0  0  0  0  0  0  0  0  0
   -2.9906    0.1463   25.0329 C   0  0  0  0  0  0  0  0  0  0  0  0
   -3.9096    1.1533   25.6198 C   0  0  0  0  0  0  0  0  0  0  0  0
   -5.1610    1.3781   25.3803 N   0  0  0  0  0  0  0  0  0  0  0  0
   -1.9501    0.8867   29.0489 N   0  0  0  0  0  0  0  0  0  0  0  0
   -1.3165    0.5090   30.1820 C   0  0  0  0  0  0  0  0  0  0  0  0
   -0.5019   -0.4696   30.2036 O   0  0  0  0  0  0  0  0  0  0  0  0
   -1.5009    1.1382   31.3631 N   0  0  0  0  0  0  0  0  0  0  0  0
   -2.3396    2.1642   31.3897 C   0  0  0  0  0  0  0  0  0  0  0  0
   -2.5636    2.7992   32.4590 O   0  0  0  0  0  0  0  0  0  0  0  0
  1  2  1  0
  2  3  2  0
  3  4  1  0
  4  5  1  0
  5  6  1  0
  6  7  1  0
  7  8  1  0
  5  9  1  0
  8  9  1  0
  9 10  2  0
  3 11  1  0
 11 12  1  0
 12 13  2  0
 12 14  1  0
  2 15  1  0
 14 15  1  0
 15 16  2  0
M  END
$$$$
