1UOU_CMU_A_1481
     RDKit          3D

 16 17  0  0  0  0  0  0  0  0999 V2000
    2.1774   14.0105    7.8286 Cl  0  0  0  0  0  0  0  0  0  0  0  0
    3.8555   13.7536    7.3556 C   0  0  0  0  0  0  0  0  0  0  0  0
    4.2567   12.4676    6.9548 C   0  0  0  0  0  0  0  0  0  0  0  0
    3.2535   11.4100    6.9844 C   0  0  0  0  0  0  0  0  0  0  0  0
    3.5849   10.1950    6.2736 N   0  0  0  0  0  0  0  0  0  0  0  0
    4.1838    8.9764    6.7939 C   0  0  0  0  0  0  0  0  0  0  0  0
    3.4384    7.8465    6.0816 C   0  0  0  0  0  0  0  0  0  0  0  0
    2.9571    8.4753    4.8162 C   0  0  0  0  0  0  0  0  0  0  0  0
    3.3607    9.9023    4.8800 C   0  0  0  0  0  0  0  0  0  0  0  0
    3.5040   10.7703    3.9314 N   0  0  0  0  0  0  0  0  0  0  0  0
    5.5376   12.3500    6.5982 N   0  0  0  0  0  0  0  0  0  0  0  0
    6.3921   13.3976    6.6229 C   0  0  0  0  0  0  0  0  0  0  0  0
    7.6130   13.2785    6.2810 O   0  0  0  0  0  0  0  0  0  0  0  0
    6.0144   14.6358    7.0090 N   0  0  0  0  0  0  0  0  0  0  0  0
    4.7518   14.8087    7.3732 C   0  0  0  0  0  0  0  0  0  0  0  0
    4.3275   15.9383    7.7484 O   0  0  0  0  0  0  0  0  0  0  0  0
  1  2  1  0
  2  3  2  0
  3  4  1  0
  4  5  1  0
  5  6  1  0
  6  7  1  0
  7  8  1  0
  5  9  1  0
  8  9  1  0
  9 10  2  0
  3 11  1  0
 11 12  1  0
 12 13  2  0
 12 14  1  0
  2 15  1  0
 14 15  1  0
 15 16  2  0
M  END
$$$$
