1UOU_CMU_A_1481
     RDKit          3D

 16 17  0  0  0  0  0  0  0  0999 V2000
    2.4419   17.7456   11.9457 Cl  0  0  0  0  0  0  0  0  0  0  0  0
    2.8500   17.2027   10.3196 C   0  0  0  0  0  0  0  0  0  0  0  0
    2.3766   15.9530    9.8842 C   0  0  0  0  0  0  0  0  0  0  0  0
    1.5934   15.1642   10.8277 C   0  0  0  0  0  0  0  0  0  0  0  0
    1.3173   13.7977   10.4433 N   0  0  0  0  0  0  0  0  0  0  0  0
    1.4763   13.1743    9.1394 C   0  0  0  0  0  0  0  0  0  0  0  0
    2.0322   11.7821    9.4433 C   0  0  0  0  0  0  0  0  0  0  0  0
    1.5636   11.5035   10.8330 C   0  0  0  0  0  0  0  0  0  0  0  0
    0.8508   12.7245   11.2850 C   0  0  0  0  0  0  0  0  0  0  0  0
   -0.0204   12.8785   12.2291 N   0  0  0  0  0  0  0  0  0  0  0  0
    2.7133   15.6130    8.6381 N   0  0  0  0  0  0  0  0  0  0  0  0
    3.4614   16.4162    7.8486 C   0  0  0  0  0  0  0  0  0  0  0  0
    3.7787   16.0858    6.6604 O   0  0  0  0  0  0  0  0  0  0  0  0
    3.9217   17.6175    8.2608 N   0  0  0  0  0  0  0  0  0  0  0  0
    3.6159   18.0049    9.4908 C   0  0  0  0  0  0  0  0  0  0  0  0
    4.0135   19.1149    9.9456 O   0  0  0  0  0  0  0  0  0  0  0  0
  1  2  1  0
  2  3  2  0
  3  4  1  0
  4  5  1  0
  5  6  1  0
  6  7  1  0
  7  8  1  0
  5  9  1  0
  8  9  1  0
  9 10  2  0
  3 11  1  0
 11 12  1  0
 12 13  2  0
 12 14  1  0
  2 15  1  0
 14 15  1  0
 15 16  2  0
M  END
$$$$
