1UOU_CMU_A_1481
     RDKit          3D

 16 17  0  0  0  0  0  0  0  0999 V2000
   -0.0483   19.5452   39.3819 Cl  0  0  0  0  0  0  0  0  0  0  0  0
   -0.7473   17.9657   39.7315 C   0  0  0  0  0  0  0  0  0  0  0  0
   -1.6900   17.8569   40.7683 C   0  0  0  0  0  0  0  0  0  0  0  0
   -2.0108   19.0669   41.5158 C   0  0  0  0  0  0  0  0  0  0  0  0
   -2.7511   18.8816   42.7442 N   0  0  0  0  0  0  0  0  0  0  0  0
   -3.1069   17.6378   43.4079 C   0  0  0  0  0  0  0  0  0  0  0  0
   -2.9126   17.9269   44.8973 C   0  0  0  0  0  0  0  0  0  0  0  0
   -3.0788   19.4067   45.0008 C   0  0  0  0  0  0  0  0  0  0  0  0
   -3.2783   19.9016   43.6157 C   0  0  0  0  0  0  0  0  0  0  0  0
   -3.8051   21.0053   43.1937 N   0  0  0  0  0  0  0  0  0  0  0  0
   -2.1863   16.6340   40.9679 N   0  0  0  0  0  0  0  0  0  0  0  0
   -1.8062   15.5710   40.2238 C   0  0  0  0  0  0  0  0  0  0  0  0
   -2.2842   14.4070   40.4193 O   0  0  0  0  0  0  0  0  0  0  0  0
   -0.8993   15.6675   39.2273 N   0  0  0  0  0  0  0  0  0  0  0  0
   -0.3745   16.8603   38.9858 C   0  0  0  0  0  0  0  0  0  0  0  0
    0.4814   17.0260   38.0710 O   0  0  0  0  0  0  0  0  0  0  0  0
  1  2  1  0
  2  3  2  0
  3  4  1  0
  4  5  1  0
  5  6  1  0
  6  7  1  0
  7  8  1  0
  5  9  1  0
  8  9  1  0
  9 10  2  0
  3 11  1  0
 11 12  1  0
 12 13  2  0
 12 14  1  0
  2 15  1  0
 14 15  1  0
 15 16  2  0
M  END
$$$$
