1UOU_CMU_A_1481
     RDKit          3D

 16 17  0  0  0  0  0  0  0  0999 V2000
   19.4579    8.9410   22.5354 Cl  0  0  0  0  0  0  0  0  0  0  0  0
   19.6021   10.6722   22.8318 C   0  0  0  0  0  0  0  0  0  0  0  0
   19.7314   11.1239   24.1565 C   0  0  0  0  0  0  0  0  0  0  0  0
   19.7083   10.1211   25.2146 C   0  0  0  0  0  0  0  0  0  0  0  0
   20.0284   10.5887   26.5451 N   0  0  0  0  0  0  0  0  0  0  0  0
   20.2139   11.9559   27.0039 C   0  0  0  0  0  0  0  0  0  0  0  0
   19.5434   11.9953   28.3781 C   0  0  0  0  0  0  0  0  0  0  0  0
   19.5974   10.5785   28.8450 C   0  0  0  0  0  0  0  0  0  0  0  0
   20.2024    9.7974   27.7373 C   0  0  0  0  0  0  0  0  0  0  0  0
   20.7827    8.6412   27.7539 N   0  0  0  0  0  0  0  0  0  0  0  0
   19.8491   12.4452   24.3044 N   0  0  0  0  0  0  0  0  0  0  0  0
   19.8424   13.2923   23.2506 C   0  0  0  0  0  0  0  0  0  0  0  0
   19.9555   14.5520   23.3988 O   0  0  0  0  0  0  0  0  0  0  0  0
   19.7163   12.8659   21.9750 N   0  0  0  0  0  0  0  0  0  0  0  0
   19.5965   11.5618   21.7709 C   0  0  0  0  0  0  0  0  0  0  0  0
   19.4723   11.0903   20.6051 O   0  0  0  0  0  0  0  0  0  0  0  0
  1  2  1  0
  2  3  2  0
  3  4  1  0
  4  5  1  0
  5  6  1  0
  6  7  1  0
  7  8  1  0
  5  9  1  0
  8  9  1  0
  9 10  2  0
  3 11  1  0
 11 12  1  0
 12 13  2  0
 12 14  1  0
  2 15  1  0
 14 15  1  0
 15 16  2  0
M  END
$$$$
