
     RDKit          3D

  9  9  0  0  0  0  0  0  0  0999 V2000
   13.5528   10.0696    7.6370 N   0  0  0  0  0  0  0  0  0  0  0  0
   13.8280   10.0705    6.3076 C   0  0  0  0  0  0  0  0  0  0  0  0
   14.9242    9.4305    5.7416 C   0  0  0  0  0  0  0  0  0  0  0  0
   15.7778    8.7240    6.5924 C   0  0  0  0  0  0  0  0  0  0  0  0
   15.5140    8.7028    7.9618 C   0  0  0  0  0  0  0  0  0  0  0  0
   14.4029    9.3857    8.4320 C   0  0  0  0  0  0  0  0  0  0  0  0
   15.1132    9.5130    4.2763 C   0  0  0  0  0  0  0  0  0  0  0  0
   14.5232   10.3461    3.6007 O   0  0  0  0  0  0  0  0  0  0  0  0
   15.9976    8.6453    3.6964 N   0  0  0  0  0  0  0  0  0  0  0  0
  1  2  4  0
  2  3  4  0
  3  4  4  0
  4  5  4  0
  1  6  4  0
  5  6  4  0
  3  7  1  0
  7  8  2  0
  7  9  1  0
M  END
