7KC5_BJZ_C_402
     RDKit          3D

 37 41  0  0  0  0  0  0  0  0999 V2000
   -9.5999  -16.8254  -12.5292 C   0  0  0  0  0  0  0  0  0  0  0  0
   -8.6251  -17.4101  -11.7564 C   0  0  0  0  0  0  0  0  0  0  0  0
   -8.8311  -17.4805  -10.3762 C   0  0  0  0  0  0  0  0  0  0  0  0
  -10.0085  -17.0321   -9.8130 C   0  0  0  0  0  0  0  0  0  0  0  0
  -10.9600  -16.4656  -10.6394 C   0  0  0  0  0  0  0  0  0  0  0  0
  -10.7757  -16.3869  -12.0070 C   0  0  0  0  0  0  0  0  0  0  0  0
  -12.4787  -15.8587   -9.9815 Cl  0  0  0  0  0  0  0  0  0  0  0  0
   -7.8902  -18.1182   -9.4650 N   0  0  0  0  0  0  0  0  0  0  0  0
   -7.3847  -19.4794   -9.7290 C   0  0  0  0  0  0  0  0  0  0  0  0
   -6.5498  -19.8207   -8.5752 N   0  0  0  0  0  0  0  0  0  0  0  0
   -6.6220  -18.7501   -7.5729 C   0  0  2  0  0  0  0  0  0  0  0  0
   -7.4246  -17.6162   -8.2079 C   0  0  0  0  0  0  0  0  0  0  0  0
   -7.7270  -16.5531   -7.8357 O   0  0  0  0  0  0  0  0  0  0  0  0
   -5.1178  -18.3154   -7.0446 C   0  0  0  0  0  0  0  0  0  0  0  0
   -5.4277  -17.8620   -5.8092 N   0  0  0  0  0  0  0  0  0  0  0  0
   -6.8582  -18.2209   -5.2501 C   0  0  0  0  0  0  0  0  0  0  0  0
   -7.2622  -19.2243   -6.4379 C   0  0  1  0  0  0  0  0  0  0  0  0
   -8.8434  -19.3059   -6.5634 C   0  0  0  0  0  0  0  0  0  0  0  0
   -9.3944  -20.5425   -6.8225 C   0  0  0  0  0  0  0  0  0  0  0  0
  -10.7738  -20.6598   -6.9720 C   0  0  0  0  0  0  0  0  0  0  0  0
  -11.5990  -19.5573   -6.8484 C   0  0  0  0  0  0  0  0  0  0  0  0
  -11.0423  -18.3048   -6.5661 C   0  0  0  0  0  0  0  0  0  0  0  0
   -9.6690  -18.2119   -6.4198 C   0  0  0  0  0  0  0  0  0  0  0  0
  -13.1083  -19.7532   -7.0074 C   0  0  0  0  0  0  0  0  0  0  0  0
  -14.1981  -19.8884   -7.1321 N   0  0  0  0  0  0  0  0  0  0  0  0
   -4.3222  -17.5460   -4.9313 C   0  0  0  0  0  0  0  0  0  0  0  0
   -3.3721  -16.7875   -5.4609 N   0  0  0  0  0  0  0  0  0  0  0  0
   -2.3255  -16.4435   -4.6766 C   0  0  0  0  0  0  0  0  0  0  0  0
   -2.2722  -16.8870   -3.3843 C   0  0  0  0  0  0  0  0  0  0  0  0
   -3.2647  -17.6399   -2.8328 C   0  0  0  0  0  0  0  0  0  0  0  0
   -4.3145  -17.9852   -3.6057 C   0  0  0  0  0  0  0  0  0  0  0  0
   -1.0894  -16.4643   -2.5189 C   0  0  0  0  0  0  0  0  0  0  0  0
   -1.0825  -16.8235   -1.3239 O   0  0  0  0  0  0  0  0  0  0  0  0
   -0.1880  -15.7428   -3.0092 O   0  0  0  0  0  0  0  0  0  0  0  0
   -5.8875  -21.0967   -8.4497 C   0  0  0  0  0  0  0  0  0  0  0  0
   -7.6297  -20.1115  -10.6997 O   0  0  0  0  0  0  0  0  0  0  0  0
   -9.3063  -16.7080  -14.2394 Cl  0  0  0  0  0  0  0  0  0  0  0  0
  1  2  2  0
  2  3  1  0
  3  4  2  0
  4  5  1  0
  1  6  1  0
  5  6  2  0
  5  7  1  0
  3  8  1  0
  8  9  1  0
  9 10  1  0
 10 11  1  0
  8 12  1  0
 11 12  1  0
 12 13  2  0
 11 14  1  1
 14 15  1  0
 15 16  1  0
 11 17  1  0
 16 17  1  0
 17 18  1  6
 18 19  2  0
 19 20  1  0
 20 21  2  0
 21 22  1  0
 18 23  1  0
 22 23  2  0
 21 24  1  0
 24 25  3  0
 15 26  1  0
 26 27  2  0
 27 28  1  0
 28 29  2  0
 29 30  1  0
 26 31  1  0
 30 31  2  0
 29 32  1  0
 32 33  2  0
 32 34  1  0
 10 35  1  0
  9 36  2  0
  1 37  1  0
M  END
