7PJQ_OWH_B_603
     RDKit          3D

 18 18  0  0  0  0  0  0  0  0999 V2000
   25.5576   38.6312    7.4463 C   0  0  1  0  0  0  0  0  0  0  0  0
   23.5423   37.5020    8.5074 C   0  0  0  0  0  0  0  0  0  0  0  0
   23.0220   38.7721    9.0561 C   0  0  0  0  0  0  0  0  0  0  0  0
   23.8837   39.6904    9.6751 C   0  0  0  0  0  0  0  0  0  0  0  0
   22.0722   41.1610   10.1201 C   0  0  0  0  0  0  0  0  0  0  0  0
   21.1758   40.2727    9.5238 C   0  0  0  0  0  0  0  0  0  0  0  0
   21.6527   39.0723    8.9942 C   0  0  0  0  0  0  0  0  0  0  0  0
   24.7211   37.4601    7.6876 N   0  0  0  0  0  0  0  0  0  0  0  0
   23.3943   40.8519   10.1861 N   0  0  0  0  0  0  0  0  0  0  0  0
   22.7665   36.1006    8.8575 S   0  0  0  0  0  0  0  0  0  0  0  0
   26.5342   38.3143    7.0234 H   0  0  0  0  0  0  0  0  0  0  0  0
   25.0605   39.3108    6.7221 H   0  0  0  0  0  0  0  0  0  0  0  0
   25.7482   39.1692    8.3964 H   0  0  0  0  0  0  0  0  0  0  0  0
   24.9402   39.4758    9.7695 H   0  0  0  0  0  0  0  0  0  0  0  0
   21.7165   42.0945   10.5352 H   0  0  0  0  0  0  0  0  0  0  0  0
   20.1216   40.5125    9.4722 H   0  0  0  0  0  0  0  0  0  0  0  0
   20.9583   38.3850    8.5269 H   0  0  0  0  0  0  0  0  0  0  0  0
   24.9046   36.6046    7.1157 H   0  0  0  0  0  0  0  0  0  0  0  0
  2  3  1  0
  3  4  2  0
  5  6  1  0
  6  7  2  0
  3  7  1  0
  1  8  1  0
  2  8  1  0
  5  9  2  0
  4  9  1  0
  2 10  2  0
  1 11  1  6
  1 12  1  0
  1 13  1  0
  4 14  1  0
  5 15  1  0
  6 16  1  0
  7 17  1  0
  8 18  1  0
M  END
