1HNN_SKF_A_3001
     RDKit          3D

 26 27  0  0  0  0  0  0  0  0999 V2000
    1.2315   10.1921    6.3077 C   0  0  0  0  0  0  0  0  0  0  0  0
    0.2098    9.9518    5.3863 C   0  0  0  0  0  0  0  0  0  0  0  0
   -0.0485   10.8725    4.3637 C   0  0  0  0  0  0  0  0  0  0  0  0
    0.7288   12.0334    4.2635 C   0  0  0  0  0  0  0  0  0  0  0  0
   -1.3191   10.5554    3.1862 S   0  0  1  0  0  6  0  0  0  0  0  0
    1.7473   12.2906    5.1942 C   0  0  0  0  0  0  0  0  0  0  0  0
    2.0168   11.3503    6.2108 C   0  0  0  0  0  0  0  0  0  0  0  0
   -0.7194   10.4074    1.8159 O   0  0  0  0  0  0  0  0  0  0  0  0
   -2.0322    9.2804    3.5392 O   0  0  0  0  0  0  0  0  0  0  0  0
   -2.4470   11.8652    3.1827 N   0  0  0  0  0  0  0  0  0  0  0  0
    2.6121   13.5192    5.0313 C   0  0  0  0  0  0  0  0  0  0  0  0
    4.0477   12.7145    6.8019 C   0  0  0  0  0  0  0  0  0  0  0  0
    3.0767   11.6147    7.2482 C   0  0  0  0  0  0  0  0  0  0  0  0
    3.3198   13.8729    6.2697 N   0  0  0  0  0  0  0  0  0  0  0  0
    1.4122    9.4739    7.0981 H   0  0  0  0  0  0  0  0  0  0  0  0
   -0.3777    9.0464    5.4700 H   0  0  0  0  0  0  0  0  0  0  0  0
    0.5456   12.7355    3.4592 H   0  0  0  0  0  0  0  0  0  0  0  0
   -1.9044   12.7340    2.9777 H   0  0  0  0  0  0  0  0  0  0  0  0
   -2.8079   11.9592    4.1585 H   0  0  0  0  0  0  0  0  0  0  0  0
    3.3516   13.3373    4.2215 H   0  0  0  0  0  0  0  0  0  0  0  0
    1.9827   14.3816    4.7204 H   0  0  0  0  0  0  0  0  0  0  0  0
    4.6603   13.0359    7.6713 H   0  0  0  0  0  0  0  0  0  0  0  0
    4.7457   12.3159    6.0319 H   0  0  0  0  0  0  0  0  0  0  0  0
    2.5788   11.9273    8.1915 H   0  0  0  0  0  0  0  0  0  0  0  0
    3.6519   10.6852    7.4504 H   0  0  0  0  0  0  0  0  0  0  0  0
    2.6207   14.1952    6.9805 H   0  0  0  0  0  0  0  0  0  0  0  0
  1  2  4  0
  2  3  4  0
  3  4  4  0
  3  5  1  0
  4  6  4  0
  1  7  4  0
  6  7  4  0
  5  8  2  0
  5  9  2  0
  5 10  1  6
  6 11  1  0
  7 13  1  0
 12 13  1  0
 11 14  1  0
 12 14  1  0
  1 15  1  0
  2 16  1  0
  4 17  1  0
 10 18  1  0
 10 19  1  0
 11 20  1  0
 11 21  1  0
 12 22  1  0
 12 23  1  0
 13 24  1  0
 13 25  1  0
 14 26  1  0
M  END
