8BN6_R53_A_303
     RDKit          3D

 29 32  0  0  0  0  0  0  0  0999 V2000
    5.5644   21.1035    0.7025 C   0  0  0  0  0  0  0  0  0  0  0  0
   -0.2775   26.1273   -2.3928 C   0  0  0  0  0  0  0  0  0  0  0  0
    4.5340   22.6195   -0.8670 C   0  0  0  0  0  0  0  0  0  0  0  0
    2.4346   22.9579   -1.4130 C   0  0  0  0  0  0  0  0  0  0  0  0
   -0.8382   21.1827   -1.4341 C   0  0  0  0  0  0  0  0  0  0  0  0
    1.0585   22.6691   -1.6051 C   0  0  0  0  0  0  0  0  0  0  0  0
    1.1687   20.4218   -2.5057 C   0  0  0  0  0  0  0  0  0  0  0  0
    0.7752   18.9948   -2.1763 C   0  0  0  0  0  0  0  0  0  0  0  0
   -1.1495   19.7499   -1.0655 C   0  0  0  0  0  0  0  0  0  0  0  0
    0.1989   23.7035   -1.9516 C   0  0  0  0  0  0  0  0  0  0  0  0
    0.6615   25.0116   -2.0391 C   0  0  0  0  0  0  0  0  0  0  0  0
    4.2198   19.2881    1.7141 N   0  0  0  0  0  0  0  0  0  0  0  0
    5.6168   21.9073   -0.3972 N   0  0  0  0  0  0  0  0  0  0  0  0
    4.8229   19.8349    0.5872 C   0  0  0  0  0  0  0  0  0  0  0  0
    3.3998   22.0264   -1.0507 N   0  0  0  0  0  0  0  0  0  0  0  0
    2.8198   17.3256    2.3721 C   0  0  0  0  0  0  0  0  0  0  0  0
    3.5893   18.1376    1.3750 C   0  0  0  0  0  0  0  0  0  0  0  0
    6.1458   21.4111    1.7461 O   0  0  0  0  0  0  0  0  0  0  0  0
    0.6168   21.3392   -1.5082 N   0  0  0  0  0  0  0  0  0  0  0  0
   -0.6438   18.8621   -2.0584 O   0  0  0  0  0  0  0  0  0  0  0  0
    0.1314   27.3049   -2.3240 O   0  0  0  0  0  0  0  0  0  0  0  0
   -1.4631   25.8251   -2.6690 O   0  0  0  0  0  0  0  0  0  0  0  0
    2.0175   25.2832   -1.8665 C   0  0  0  0  0  0  0  0  0  0  0  0
    2.8728   24.2604   -1.4820 C   0  0  0  0  0  0  0  0  0  0  0  0
    4.5813   24.3497   -1.1662 S   0  0  0  0  0  0  0  0  0  0  0  0
    4.5916   18.9612   -0.4442 C   0  0  0  0  0  0  0  0  0  0  0  0
    5.1270   19.1030   -2.0638 Cl  0  0  0  0  0  0  0  0  0  0  0  0
    3.8598   17.9060    0.0405 C   0  0  0  0  0  0  0  0  0  0  0  0
    3.2738   16.6045   -0.9166 Cl  0  0  0  0  0  0  0  0  0  0  0  0
  4  6  1  0
  7  8  1  0
  5  9  1  0
  6 10  2  0
 10 11  1  0
  2 11  1  0
  3 13  1  0
  1 13  1  0
  1 14  1  0
 12 14  1  0
  4 15  1  0
  3 15  2  0
 12 17  1  0
 16 17  1  0
  1 18  2  0
  5 19  1  0
  7 19  1  0
  6 19  1  0
  9 20  1  0
  8 20  1  0
  2 21  1  0
  2 22  2  0
 11 23  2  0
  4 24  2  0
 23 24  1  0
  3 25  1  0
 24 25  1  0
 14 26  2  0
 26 27  1  0
 26 28  1  0
 17 28  2  0
 28 29  1  0
M  END
