
     RDKit          3D

 32 36  0  0  0  0  0  0  0  0999 V2000
  127.1722   20.3143   -4.3194 C   0  0  0  0  0  0  0  0  0  0  0  0
  125.8767   20.6439   -4.7444 C   0  0  0  0  0  0  0  0  0  0  0  0
  125.6585   21.3912   -5.9107 C   0  0  0  0  0  0  0  0  0  0  0  0
  124.3389   21.7213   -6.3275 N   0  0  0  0  0  0  0  0  0  0  0  0
  123.1592   21.5201   -5.5980 C   0  0  0  0  0  0  0  0  0  0  0  0
  123.0103   21.0181   -4.4939 O   0  0  0  0  0  0  0  0  0  0  0  0
  122.0081   22.1000   -6.3824 C   0  0  0  0  0  0  0  0  0  0  0  0
  122.5581   22.2744   -7.7972 C   0  0  2  0  0  0  0  0  0  0  0  0
  122.1261   21.2174   -8.7339 N   0  0  0  0  0  0  0  0  0  0  0  0
  120.9804   20.4229   -8.2534 C   0  0  0  0  0  0  0  0  0  0  0  0
  119.6954   20.5030   -9.1039 C   0  0  0  0  0  0  0  0  0  0  0  0
  119.9287   20.2995  -10.5361 N   0  0  0  0  0  0  0  0  0  0  0  0
  118.9035   20.2537  -11.4918 C   0  0  0  0  0  0  0  0  0  0  0  0
  117.7380   20.5004  -11.1832 O   0  0  0  0  0  0  0  0  0  0  0  0
  119.2632   19.8982  -12.8513 C   0  0  0  0  0  0  0  0  0  0  0  0
  119.8962   20.8396  -13.6185 O   0  0  0  0  0  0  0  0  0  0  0  0
  120.1484   20.2762  -14.8269 C   0  0  0  0  0  0  0  0  0  0  0  0
  119.7006   18.9779  -14.8560 C   0  0  0  0  0  0  0  0  0  0  0  0
  119.1377   18.7283  -13.5801 C   0  0  0  0  0  0  0  0  0  0  0  0
  121.3005   20.5325  -10.9958 C   0  0  0  0  0  0  0  0  0  0  0  0
  121.9979   21.6136  -10.1493 C   0  0  0  0  0  0  0  0  0  0  0  0
  124.0665   22.4195   -7.5625 C   0  0  0  0  0  0  0  0  0  0  0  0
  126.7857   21.7970   -6.6315 C   0  0  0  0  0  0  0  0  0  0  0  0
  128.0819   21.4710   -6.2054 C   0  0  0  0  0  0  0  0  0  0  0  0
  128.2987   20.7233   -5.0428 C   0  0  0  0  0  0  0  0  0  0  0  0
  129.6593   20.3802   -4.5993 C   0  0  0  0  0  0  0  0  0  0  0  0
  129.9572   20.2270   -3.2323 C   0  0  0  0  0  0  0  0  0  0  0  0
  131.2500   19.9052   -2.8098 C   0  0  0  0  0  0  0  0  0  0  0  0
  132.2553   19.7346   -3.7520 C   0  0  0  0  0  0  0  0  0  0  0  0
  131.9927   19.8763   -5.1084 C   0  0  0  0  0  0  0  0  0  0  0  0
  130.6995   20.1967   -5.5296 C   0  0  0  0  0  0  0  0  0  0  0  0
  133.4956   19.4286   -3.3487 F   0  0  0  0  0  0  0  0  0  0  0  0
  1  2  4  0
  2  3  4  0
  3  4  1  0
  4  5  1  0
  5  6  2  0
  5  7  1  0
  7  8  1  0
  8  9  1  6
  9 10  1  0
 10 11  1  0
 11 12  1  0
 12 13  1  0
 13 14  2  0
 13 15  1  0
 15 16  4  0
 16 17  4  0
 17 18  4  0
 18 19  4  0
 15 19  4  0
 12 20  1  0
 20 21  1  0
  9 21  1  0
  8 22  1  0
  4 22  1  0
  3 23  4  0
 23 24  4  0
  1 25  4  0
 24 25  4  0
 25 26  1  0
 26 27  4  0
 27 28  4  0
 28 29  4  0
 29 30  4  0
 30 31  4  0
 26 31  4  0
 29 32  1  0
M  END
