8F8E_XJI_A_1401
     RDKit          3D

 29 31  0  0  0  0  0  0  0  0999 V2000
  -27.2970  -14.0233    2.5008 N   0  0  0  0  0  0  0  0  0  0  0  0
  -31.2171  -16.6170    0.4408 C   0  0  0  0  0  0  0  0  0  0  0  0
  -30.1927  -16.1439   -0.3378 C   0  0  0  0  0  0  0  0  0  0  0  0
  -30.9775  -12.1069    1.4638 N   0  0  0  0  0  0  0  0  0  0  0  0
  -29.3181  -15.1958    0.1796 C   0  0  0  0  0  0  0  0  0  0  0  0
  -34.2632   -9.8227    0.1082 O   0  0  0  0  0  0  0  0  0  0  0  0
  -28.6695  -12.3706    2.2686 C   0  0  0  0  0  0  0  0  0  0  0  0
  -30.4477  -15.1673    2.2341 C   0  0  0  0  0  0  0  0  0  0  0  0
  -31.3253  -16.1173    1.7182 C   0  0  0  0  0  0  0  0  0  0  0  0
  -35.1959  -11.6797   -0.8373 N   0  0  0  0  0  0  0  0  0  0  0  0
  -29.4134  -14.6895    1.4469 C   0  0  0  0  0  0  0  0  0  0  0  0
  -28.5271  -13.7081    2.0339 C   0  0  0  0  0  0  0  0  0  0  0  0
  -27.4963  -11.9101    2.8816 C   0  0  0  0  0  0  0  0  0  0  0  0
  -34.1189  -11.0233   -0.1625 C   0  0  0  0  0  0  0  0  0  0  0  0
  -32.9324  -11.8455    0.1487 C   0  0  0  0  0  0  0  0  0  0  0  0
  -32.1549  -11.2465    1.3297 C   0  0  1  0  0  0  0  0  0  0  0  0
  -32.9869  -11.1966    2.5253 C   0  0  0  0  0  0  0  0  0  0  0  0
  -33.3981   -9.9787    3.0362 C   0  0  0  0  0  0  0  0  0  0  0  0
  -34.1931   -9.9054    4.1866 C   0  0  0  0  0  0  0  0  0  0  0  0
  -34.6016  -11.0342    4.8604 C   0  0  0  0  0  0  0  0  0  0  0  0
  -35.3597  -10.9199    5.9586 F   0  0  0  0  0  0  0  0  0  0  0  0
  -34.1948  -12.2480    4.3553 C   0  0  0  0  0  0  0  0  0  0  0  0
  -34.7019  -13.7189    5.1983 Cl  0  0  0  0  0  0  0  0  0  0  0  0
  -33.4153  -12.3230    3.2280 C   0  0  0  0  0  0  0  0  0  0  0  0
  -29.7800  -11.5025    1.9961 C   0  0  0  0  0  0  0  0  0  0  0  0
  -29.7713  -10.2414    2.1919 O   0  0  0  0  0  0  0  0  0  0  0  0
  -26.6787  -12.9740    3.0022 N   0  0  0  0  0  0  0  0  0  0  0  0
  -32.3620  -17.8161   -0.1472 Cl  0  0  0  0  0  0  0  0  0  0  0  0
  -30.6653  -14.7584    3.5042 F   0  0  0  0  0  0  0  0  0  0  0  0
  2  3  2  0
  3  5  1  0
  2  9  1  0
  8  9  2  0
  8 11  1  0
  5 11  2  0
 11 12  1  0
  7 12  1  0
  1 12  2  0
  7 13  2  0
  6 14  2  0
 10 14  1  0
 14 15  1  0
 16 15  1  6
  4 16  1  0
 16 17  1  0
 17 18  2  0
 18 19  1  0
 19 20  2  0
 20 21  1  0
 20 22  1  0
 22 23  1  0
 17 24  1  0
 22 24  2  0
  4 25  1  0
  7 25  1  0
 25 26  2  0
  1 27  1  0
 13 27  1  0
  2 28  1  0
  8 29  1  0
M  END
$$$$
