
     RDKit          3D

 32 34  0  0  0  0  0  0  0  0999 V2000
  -19.1484   -6.7730  -22.0633 N   0  0  0  0  0  0  0  0  0  0  0  0
  -18.3795   -5.6592  -22.6527 C   0  0  0  0  0  0  0  0  0  0  0  0
  -14.5959   -8.3334  -21.2133 C   0  0  0  0  0  0  0  0  0  0  0  0
  -16.9455   -9.2847  -19.2920 C   0  0  0  0  0  0  0  0  0  0  0  0
  -17.7673   -8.4879  -20.1655 N   0  0  0  0  0  0  0  0  0  0  0  0
  -18.2695   -7.2671  -19.7423 C   0  0  0  0  0  0  0  0  0  0  0  0
  -17.8270   -6.6766  -18.7607 O   0  0  0  0  0  0  0  0  0  0  0  0
  -19.4222   -6.7547  -20.6237 C   0  0  0  0  0  0  0  0  0  0  0  0
  -16.8922   -5.8675  -23.0842 C   0  0  0  0  0  0  0  0  0  0  0  0
  -15.9910   -6.5135  -22.0351 C   0  0  0  0  0  0  0  0  0  0  0  0
  -15.4089   -7.7781  -22.2050 C   0  0  0  0  0  0  0  0  0  0  0  0
  -14.3500   -7.6346  -20.0350 C   0  0  0  0  0  0  0  0  0  0  0  0
  -14.9143   -6.3765  -19.8472 C   0  0  0  0  0  0  0  0  0  0  0  0
  -15.7253   -5.8199  -20.8386 C   0  0  0  0  0  0  0  0  0  0  0  0
  -16.6919   -6.3490  -24.5206 C   0  0  0  0  0  0  0  0  0  0  0  0
  -15.4162   -6.2605  -25.1083 C   0  0  0  0  0  0  0  0  0  0  0  0
  -15.1940   -6.6919  -26.4182 C   0  0  0  0  0  0  0  0  0  0  0  0
  -16.2403   -7.2299  -27.1610 C   0  0  0  0  0  0  0  0  0  0  0  0
  -17.5044   -7.3432  -26.5902 C   0  0  0  0  0  0  0  0  0  0  0  0
  -17.7258   -6.9089  -25.2806 C   0  0  0  0  0  0  0  0  0  0  0  0
  -19.9341   -7.6649  -22.8037 C   0  0  0  0  0  0  0  0  0  0  0  0
  -21.1569   -7.5876  -22.8930 O   0  0  0  0  0  0  0  0  0  0  0  0
  -19.2757   -8.7534  -23.5464 C   0  0  0  0  0  0  0  0  0  0  0  0
  -19.9326   -9.3501  -24.6262 C   0  0  0  0  0  0  0  0  0  0  0  0
  -19.3041  -10.3761  -25.3435 C   0  0  0  0  0  0  0  0  0  0  0  0
  -20.0079  -11.0110  -26.5085 C   0  0  0  0  0  0  0  0  0  0  0  0
  -18.0042  -10.7664  -24.9696 C   0  0  0  0  0  0  0  0  0  0  0  0
  -17.3766  -11.7555  -25.6871 O   0  0  0  0  0  0  0  0  0  0  0  0
  -16.9376  -11.2478  -26.9482 C   0  0  0  0  0  0  0  0  0  0  0  0
  -17.3742  -10.2253  -23.8344 C   0  0  0  0  0  0  0  0  0  0  0  0
  -16.0167  -10.6798  -23.3817 C   0  0  0  0  0  0  0  0  0  0  0  0
  -18.0214   -9.2019  -23.1308 C   0  0  0  0  0  0  0  0  0  0  0  0
  1  2  1  0
  4  5  1  0
  5  6  1  0
  6  7  2  0
  1  8  1  0
  6  8  1  0
  2  9  1  0
  9 10  1  0
  3 11  4  0
 10 11  4  0
  3 12  4  0
 12 13  4  0
 13 14  4  0
 10 14  4  0
  9 15  1  0
 15 16  4  0
 16 17  4  0
 17 18  4  0
 18 19  4  0
 15 20  4  0
 19 20  4  0
  1 21  1  0
 21 22  2  0
 21 23  1  0
 23 24  4  0
 24 25  4  0
 25 26  1  0
 25 27  4  0
 27 28  1  0
 28 29  1  0
 27 30  4  0
 30 31  1  0
 23 32  4  0
 30 32  4  0
M  END
