7AFX_R9K_A_304
     RDKit          3D

 32 34  0  0  0  0  0  0  0  0999 V2000
  -26.9584    5.4775   65.6071 C   0  0  0  0  0  0  0  0  0  0  0  0
  -24.9369    3.2582   68.6589 C   0  0  0  0  0  0  0  0  0  0  0  0
  -25.1284    5.2296   67.2683 C   0  0  0  0  0  0  0  0  0  0  0  0
  -30.0299    7.8387   62.8861 C   0  0  1  0  0  0  0  0  0  0  0  0
  -29.8138    6.9194   64.0521 C   0  0  0  0  0  0  0  0  0  0  0  0
  -30.8998    6.4393   64.8168 C   0  0  0  0  0  0  0  0  0  0  0  0
  -30.6811    5.5848   65.9185 C   0  0  0  0  0  0  0  0  0  0  0  0
  -29.3785    5.1951   66.2715 C   0  0  0  0  0  0  0  0  0  0  0  0
  -28.3219    5.6725   65.4966 C   0  0  0  0  0  0  0  0  0  0  0  0
  -28.5269    6.5121   64.4302 C   0  0  0  0  0  0  0  0  0  0  0  0
  -26.3889    6.2343   64.5785 C   0  0  0  0  0  0  0  0  0  0  0  0
  -26.2670    4.6921   66.6472 C   0  0  0  0  0  0  0  0  0  0  0  0
  -26.7385    3.4231   67.0418 C   0  0  0  0  0  0  0  0  0  0  0  0
  -26.0685    2.7138   68.0463 C   0  0  0  0  0  0  0  0  0  0  0  0
  -24.4666    4.5140   68.2693 C   0  0  0  0  0  0  0  0  0  0  0  0
  -24.9548    6.3367   64.2524 C   0  0  0  0  0  0  0  0  0  0  0  0
  -27.3555    6.8600   63.8645 N   0  0  0  0  0  0  0  0  0  0  0  0
  -24.0374    5.4457   64.8003 O   0  0  0  0  0  0  0  0  0  0  0  0
  -24.5552    7.2296   63.4584 O   0  0  0  0  0  0  0  0  0  0  0  0
  -28.1349    2.6776   66.2712 Cl  0  0  0  0  0  0  0  0  0  0  0  0
  -24.4227    2.7051   69.4342 H   0  0  0  0  0  0  0  0  0  0  0  0
  -24.7568    6.2054   66.9794 H   0  0  0  0  0  0  0  0  0  0  0  0
  -29.4855    8.7912   63.0564 H   0  0  0  0  0  0  0  0  0  0  0  0
  -29.6503    7.3616   61.9582 H   0  0  0  0  0  0  0  0  0  0  0  0
  -31.1075    8.0687   62.7465 H   0  0  0  0  0  0  0  0  0  0  0  0
  -31.9136    6.7263   64.5670 H   0  0  0  0  0  0  0  0  0  0  0  0
  -31.5229    5.2287   66.4979 H   0  0  0  0  0  0  0  0  0  0  0  0
  -29.2052    4.5453   67.1196 H   0  0  0  0  0  0  0  0  0  0  0  0
  -26.4218    1.7366   68.3502 H   0  0  0  0  0  0  0  0  0  0  0  0
  -23.5897    4.9342   68.7446 H   0  0  0  0  0  0  0  0  0  0  0  0
  -27.2180    7.4845   63.0385 H   0  0  0  0  0  0  0  0  0  0  0  0
  -23.1750    5.7764   65.2161 H   0  0  0  0  0  0  0  0  0  0  0  0
  4  5  1  0
  5  6  2  0
  6  7  1  0
  7  8  2  0
  1  9  1  0
  8  9  1  0
  9 10  2  0
  5 10  1  0
  1 11  2  0
  3 12  1  0
  1 12  1  0
 12 13  2  0
  2 14  2  0
 13 14  1  0
  3 15  2  0
  2 15  1  0
 11 16  1  0
 11 17  1  0
 10 17  1  0
 16 18  1  0
 16 19  2  0
 13 20  1  0
  2 21  1  0
  3 22  1  0
  4 23  1  1
  4 24  1  0
  4 25  1  0
  6 26  1  0
  7 27  1  0
  8 28  1  0
 14 29  1  0
 15 30  1  0
 17 31  1  0
 18 32  1  0
M  END
