8EX2_Q2Q_A_901
     RDKit          3D

 38 41  0  0  0  0  0  0  0  0999 V2000
    8.1266    7.6696   -2.1531 C   0  0  0  0  0  0  0  0  0  0  0  0
    8.0172    6.8387   -3.2685 C   0  0  0  0  0  0  0  0  0  0  0  0
    7.3200    5.6304   -3.1787 C   0  0  0  0  0  0  0  0  0  0  0  0
    6.7188    5.2334   -1.9645 C   0  0  0  0  0  0  0  0  0  0  0  0
    6.8393    6.0873   -0.8470 C   0  0  0  0  0  0  0  0  0  0  0  0
    7.5385    7.2943   -0.9448 C   0  0  0  0  0  0  0  0  0  0  0  0
    5.9754    3.9411   -1.8793 C   0  0  0  0  0  0  0  0  0  0  0  0
    5.5550    3.2063   -3.1604 C   0  0  0  0  0  0  0  0  0  0  0  0
    4.8033    1.9224   -2.9106 C   0  0  0  0  0  0  0  0  0  0  0  0
    4.9983    2.2240   -0.5322 C   0  0  0  0  0  0  0  0  0  0  0  0
    4.6116    1.6125    0.6403 C   0  0  0  0  0  0  0  0  0  0  0  0
    3.9408    0.4638    0.1973 C   0  0  0  0  0  0  0  0  0  0  0  0
    3.3137   -0.6094    1.0373 C   0  0  2  0  0  0  0  0  0  0  0  0
    4.8708    2.0858    2.0174 C   0  0  0  0  0  0  0  0  0  0  0  0
    4.1406    3.1685    2.5379 C   0  0  0  0  0  0  0  0  0  0  0  0
    4.3681    3.6114    3.8444 C   0  0  0  0  0  0  0  0  0  0  0  0
    5.3195    2.9738    4.6442 C   0  0  0  0  0  0  0  0  0  0  0  0
    6.0415    1.8892    4.1400 C   0  0  0  0  0  0  0  0  0  0  0  0
    5.8168    1.4431    2.8338 C   0  0  0  0  0  0  0  0  0  0  0  0
    2.1920   -0.1241    1.6843 F   0  0  0  0  0  0  0  0  0  0  0  0
    4.2175   -1.0441    1.9897 F   0  0  0  0  0  0  0  0  0  0  0  0
    2.9611   -1.6792    0.2368 F   0  0  0  0  0  0  0  0  0  0  0  0
    4.5732    1.5123   -1.5691 N   0  0  0  0  0  4  0  0  0  0  0  0
    5.6977    3.4557   -0.6968 N   0  0  0  0  0  0  0  0  0  0  0  0
    3.9241    0.4367   -1.1577 N   0  0  0  0  0  0  0  0  0  0  0  0
    4.3871    1.2260   -3.8743 O   0  0  0  0  0  0  0  0  0  0  0  0
    8.6670    8.6046   -2.2251 H   0  0  0  0  0  0  0  0  0  0  0  0
    8.4735    7.1309   -4.2055 H   0  0  0  0  0  0  0  0  0  0  0  0
    7.2536    5.0095   -4.0632 H   0  0  0  0  0  0  0  0  0  0  0  0
    6.3977    5.8336    0.1065 H   0  0  0  0  0  0  0  0  0  0  0  0
    7.6239    7.9404   -0.0805 H   0  0  0  0  0  0  0  0  0  0  0  0
    4.9037    3.8753   -3.7618 H   0  0  0  0  0  0  0  0  0  0  0  0
    6.4637    2.9654   -3.7518 H   0  0  0  0  0  0  0  0  0  0  0  0
    3.4055    3.6805    1.9294 H   0  0  0  0  0  0  0  0  0  0  0  0
    3.8070    4.4498    4.2364 H   0  0  0  0  0  0  0  0  0  0  0  0
    5.4939    3.3169    5.6558 H   0  0  0  0  0  0  0  0  0  0  0  0
    6.7705    1.3887    4.7641 H   0  0  0  0  0  0  0  0  0  0  0  0
    6.3637    0.5832    2.4738 H   0  0  0  0  0  0  0  0  0  0  0  0
  1  2  4  0
  2  3  4  0
  3  4  4  0
  4  5  4  0
  5  6  4  0
  1  6  4  0
  4  7  1  0
  7  8  1  0
  8  9  1  0
 10 11  4  0
 11 12  4  0
 12 13  1  0
 11 14  1  0
 14 15  4  0
 15 16  4  0
 16 17  4  0
 17 18  4  0
 18 19  4  0
 14 19  4  0
 13 20  1  1
 13 21  1  0
 13 22  1  0
 10 23  4  0
  9 23  1  0
  7 24  2  0
 10 24  1  0
 12 25  4  0
 23 25  4  0
  9 26  2  0
  1 27  1  0
  2 28  1  0
  3 29  1  0
  5 30  1  0
  6 31  1  0
  8 32  1  0
  8 33  1  0
 15 34  1  0
 16 35  1  0
 17 36  1  0
 18 37  1  0
 19 38  1  0
M  CHG  1  23   1
M  END
