7Z7F_IF3_A_606
     RDKit          3D

 14 15  0  0  0  0  0  0  0  0999 V2000
   18.6677   37.8083    2.6110 C   0  0  0  0  0  0  0  0  0  0  0  0
   12.3559   38.7679    2.1264 C   0  0  0  0  0  0  0  0  0  0  0  0
   14.4978   39.7499    1.1860 C   0  0  0  0  0  0  0  0  0  0  0  0
   15.1842   40.8262    0.5285 C   0  0  0  0  0  0  0  0  0  0  0  0
   16.5578   40.7713    0.4761 C   0  0  0  0  0  0  0  0  0  0  0  0
   16.5362   38.7503    1.6501 C   0  0  0  0  0  0  0  0  0  0  0  0
   15.9148   42.6080   -0.5323 C   0  0  0  0  0  0  0  0  0  0  0  0
   18.3953   42.2025   -0.4114 C   0  0  0  0  0  0  0  0  0  0  0  0
   13.0504   39.7431    1.2885 N   0  0  0  0  0  0  0  0  0  0  0  0
   17.2048   39.7264    1.0467 N   0  0  0  0  0  0  0  0  0  0  0  0
   15.2023   38.7564    1.7083 N   0  0  0  0  0  0  0  0  0  0  0  0
   17.2601   37.6559    2.2677 N   0  0  0  0  0  0  0  0  0  0  0  0
   16.9889   41.8820   -0.1712 N   0  0  0  0  0  0  0  0  0  0  0  0
   14.8013   41.9791   -0.1099 N   0  0  0  0  0  0  0  0  0  0  0  0
  3  4  2  0
  4  5  1  0
  2  9  1  0
  3  9  1  0
  5 10  2  0
  6 10  1  0
  3 11  1  0
  6 11  2  0
  6 12  1  0
  1 12  1  0
  7 13  1  0
  5 13  1  0
  8 13  1  0
  7 14  2  0
  4 14  1  0
M  END
