7CNQ_G8X_C_602
     RDKit          3D

  9  9  0  0  0  0  0  0  0  0999 V2000
   -6.7741   12.8562   51.5098 O   0  0  0  0  0  0  0  0  0  0  0  0
   -8.3508   11.4459   53.5813 O   0  0  0  0  0  0  0  0  0  0  0  0
   -6.0764   14.2160   54.4661 N   0  0  0  0  0  0  0  0  0  0  0  0
   -6.9791   14.0024   52.2834 C   0  0  2  0  0  0  0  0  0  0  0  0
   -5.7703   14.9104   52.2160 C   0  0  0  0  0  0  0  0  0  0  0  0
   -5.2040   14.9338   53.5967 C   0  0  0  0  0  0  0  0  0  0  0  0
   -7.1745   13.6745   53.7371 C   0  0  1  0  0  0  0  0  0  0  0  0
   -7.2340   12.1939   53.9638 C   0  0  0  0  0  0  0  0  0  0  0  0
   -6.2649   11.5718   54.5136 O   0  0  0  0  0  0  0  0  0  0  0  0
  4  1  1  6
  4  5  1  0
  5  6  1  6
  6  3  1  1
  4  7  1  0
  3  7  1  0
  7  8  1  6
  2  8  1  0
  8  9  2  0
M  END
$$$$
