7ODY_DGI_D_201
     RDKit          3D

 27 29  0  0  0  0  0  0  0  0999 V2000
   20.8193   -6.7869   -5.3409 O   0  0  0  0  0  0  0  0  0  0  0  0
   20.5090   -7.4240   -6.6980 P   0  0  1  0  0  5  0  0  0  0  0  0
   21.3288   -8.8965   -6.7598 O   0  0  0  0  0  0  0  0  0  0  0  0
   18.8486   -7.6618   -6.7571 O   0  0  0  0  0  0  0  0  0  0  0  0
   21.0480   -6.3739   -7.8948 O   0  0  0  0  0  0  0  0  0  0  0  0
   21.5630   -7.1708   -9.2766 P   0  0  2  0  0  5  0  0  0  0  0  0
   22.7804   -8.0035   -8.9063 O   0  0  0  0  0  0  0  0  0  0  0  0
   22.0557   -6.0484  -10.4158 O   0  0  0  0  0  0  0  0  0  0  0  0
   20.4106   -8.1933   -9.9378 O   0  0  0  0  0  0  0  0  0  0  0  0
   20.7324   -9.5389   -9.7667 C   0  0  0  0  0  0  0  0  0  0  0  0
   21.4717   -9.9902  -10.9865 C   0  0  1  0  0  0  0  0  0  0  0  0
   21.7523   -8.9590  -11.8822 O   0  0  0  0  0  0  0  0  0  0  0  0
   22.8018  -10.6274  -10.6701 C   0  0  1  0  0  0  0  0  0  0  0  0
   22.6124  -12.0096  -10.6269 O   0  0  0  0  0  0  0  0  0  0  0  0
   23.6091  -10.2355  -11.8921 C   0  0  0  0  0  0  0  0  0  0  0  0
   22.5605   -9.6664  -12.7914 C   0  0  2  0  0  0  0  0  0  0  0  0
   23.0864   -8.8285  -13.8410 N   0  0  0  0  0  0  0  0  0  0  0  0
   23.1756   -7.4862  -13.8979 C   0  0  0  0  0  0  0  0  0  0  0  0
   23.7305   -7.1345  -15.0591 N   0  0  0  0  0  0  0  0  0  0  0  0
   24.0012   -8.2349  -15.7539 C   0  0  0  0  0  0  0  0  0  0  0  0
   23.5988   -9.3064  -14.9940 C   0  0  0  0  0  0  0  0  0  0  0  0
   23.7486  -10.5716  -15.4447 N   0  0  0  0  0  0  0  0  0  0  0  0
   24.3024  -10.7978  -16.6617 C   0  0  0  0  0  0  0  0  0  0  0  0
   24.4683  -12.1354  -17.1544 N   0  0  0  0  0  0  0  0  0  0  0  0
   24.7156   -9.7744  -17.4496 N   0  0  0  0  0  0  0  0  0  0  0  0
   24.5700   -8.4941  -17.0065 C   0  0  0  0  0  0  0  0  0  0  0  0
   24.9517   -7.5349  -17.7330 O   0  0  0  0  0  0  0  0  0  0  0  0
  1  2  2  0
  2  3  1  1
  2  4  1  0
  2  5  1  0
  6  5  1  0
  6  7  2  0
  6  8  1  6
  6  9  1  0
 10  9  1  1
 11 10  1  0
 11 12  1  6
 11 13  1  0
 13 14  1  6
 13 15  1  0
 12 16  1  0
 15 16  1  1
 16 17  1  6
 17 18  1  0
 18 19  2  0
 19 20  1  0
 17 21  1  0
 20 21  2  0
 21 22  1  0
 22 23  2  0
 23 24  1  0
 23 25  1  0
 20 26  1  0
 25 26  1  0
 26 27  2  0
M  END
$$$$
