7NML_I7B_B_201
     RDKit          3D

 16 16  0  0  0  0  0  0  0  0999 V2000
    8.8572   -0.0180  -19.5453 C   0  0  0  0  0  0  0  0  0  0  0  0
    9.5389   -0.4564  -18.4242 C   0  0  0  0  0  0  0  0  0  0  0  0
   10.2055    0.4143  -17.6087 C   0  0  0  0  0  0  0  0  0  0  0  0
   10.2266    1.7540  -17.9209 C   0  0  0  0  0  0  0  0  0  0  0  0
    9.5463    2.2049  -19.0401 C   0  0  0  0  0  0  0  0  0  0  0  0
    8.8681    1.3444  -19.8744 C   0  0  0  0  0  0  0  0  0  0  0  0
    9.4783   -2.1948  -18.1073 S   0  0  1  0  0  0  0  0  0  0  0  0
   10.8843   -2.7122  -17.9632 N   0  0  0  0  0  0  0  0  0  0  0  0
    8.6187   -2.4310  -16.8051 O   0  0  0  0  0  0  0  0  0  0  0  0
    8.7586   -2.8729  -19.2335 O   0  0  0  0  0  0  0  0  0  0  0  0
    7.9666    1.8893  -21.3288 S   0  0  2  0  0  0  0  0  0  0  0  0
    6.7749    2.6994  -20.8601 N   0  0  0  0  0  0  0  0  0  0  0  0
    7.4641    0.5962  -22.0085 O   0  0  0  0  0  0  0  0  0  0  0  0
    8.8531    2.7125  -22.2184 O   0  0  0  0  0  0  0  0  0  0  0  0
   10.8839   -0.0462  -16.4756 N   0  0  0  0  0  0  0  0  0  0  0  0
    9.6035    3.8020  -19.3329 Cl  0  0  0  0  0  0  0  0  0  0  0  0
  1  2  2  0
  2  3  1  0
  3  4  2  0
  4  5  1  0
  1  6  1  0
  5  6  2  0
  2  7  1  0
  7  8  1  1
  7  9  2  0
  7 10  2  0
  6 11  1  0
 11 12  1  1
 11 13  2  0
 11 14  2  0
  3 15  1  0
  5 16  1  0
M  END
