7UY4_SMI_A_302
     RDKit          3D

 24 26  0  0  0  0  0  0  0  0999 V2000
   -3.8406  -38.6836   35.9757 O   0  0  0  0  0  0  0  0  0  0  0  0
   -4.2183  -39.3784   34.8021 C   0  0  2  0  0  0  0  0  0  0  0  0
   -3.1639  -40.4574   34.4996 C   0  0  0  0  0  0  0  0  0  0  0  0
   -4.2395  -38.3953   33.6990 C   0  0  0  0  0  0  0  0  0  0  0  0
   -5.2425  -37.2782   33.9486 C   0  0  1  0  0  0  0  0  0  0  0  0
   -4.9816  -36.6871   35.3269 C   0  0  1  0  0  0  0  0  0  0  0  0
   -6.1147  -35.9210   35.6811 O   0  0  0  0  0  0  0  0  0  0  0  0
   -4.8576  -37.7819   36.4140 C   0  0  2  0  0  0  0  0  0  0  0  0
   -3.7605  -35.9269   35.2161 O   0  0  0  0  0  0  0  0  0  0  0  0
   -4.4871  -37.1667   37.6792 O   0  0  0  0  0  0  0  0  0  0  0  0
   -3.3713  -35.4093   36.4816 C   0  0  2  0  0  0  0  0  0  0  0  0
   -2.0073  -34.7127   36.3256 C   0  0  1  0  0  0  0  0  0  0  0  0
   -2.1026  -33.7791   35.2203 N   0  0  0  0  0  0  0  0  0  0  0  0
   -1.3598  -32.5019   35.2297 C   0  0  0  0  0  0  0  0  0  0  0  0
   -1.5217  -34.1484   37.6157 C   0  0  1  0  0  0  0  0  0  0  0  0
   -2.3578  -33.0789   38.0355 O   0  0  0  0  0  0  0  0  0  0  0  0
   -1.5791  -35.2252   38.7069 C   0  0  1  0  0  0  0  0  0  0  0  0
   -1.2403  -34.6951   40.0499 N   0  0  0  0  0  0  0  0  0  0  0  0
   -0.5259  -33.4514   40.0999 C   0  0  0  0  0  0  0  0  0  0  0  0
   -2.8858  -35.8807   38.8372 C   0  0  2  0  0  0  0  0  0  0  0  0
   -2.8119  -36.9228   39.8632 O   0  0  0  0  0  0  0  0  0  0  0  0
   -3.2783  -36.5205   37.4990 C   0  0  1  0  0  0  0  0  0  0  0  0
   -5.1532  -36.3322   32.9199 O   0  0  0  0  0  0  0  0  0  0  0  0
   -6.5813  -37.7580   33.8829 O   0  0  0  0  0  0  0  0  0  0  0  0
  1  2  1  0
  2  3  1  6
  2  4  1  0
  4  5  1  0
  5  6  1  0
  6  7  1  1
  8  1  1  6
  6  8  1  0
  6  9  1  0
  8 10  1  0
 11  9  1  6
 11 12  1  0
 12 13  1  6
 13 14  1  0
 12 15  1  0
 15 16  1  1
 15 17  1  0
 17 18  1  1
 18 19  1  0
 17 20  1  0
 20 21  1  1
 22 10  1  1
 11 22  1  0
 20 22  1  0
  5 23  1  6
  5 24  1  0
M  END
