
     RDKit          3D

 24 26  0  0  0  0  0  0  0  0999 V2000
   -1.4215  -31.3929   17.8864 O   0  0  0  0  0  0  0  0  0  0  0  0
   -0.1504  -31.6384   17.2913 C   0  0  1  0  0  0  0  0  0  0  0  0
    0.4855  -32.8143   18.0249 C   0  0  0  0  0  0  0  0  0  0  0  0
   -0.2570  -31.9244   15.7871 C   0  0  0  0  0  0  0  0  0  0  0  0
   -1.3000  -31.0427   15.0960 C   0  0  1  0  0  0  0  0  0  0  0  0
   -1.6525  -29.7826   15.9494 C   0  0  1  0  0  0  0  0  0  0  0  0
   -2.6382  -29.0283   15.2333 O   0  0  0  0  0  0  0  0  0  0  0  0
   -2.1755  -30.3182   17.3130 C   0  0  2  0  0  0  0  0  0  0  0  0
   -0.4901  -28.9645   16.1151 O   0  0  0  0  0  0  0  0  0  0  0  0
   -2.3529  -29.2640   18.2640 O   0  0  0  0  0  0  0  0  0  0  0  0
   -0.6056  -27.9301   17.1046 C   0  0  1  0  0  0  0  0  0  0  0  0
   -1.3625  -26.6599   16.6357 C   0  0  2  0  0  0  0  0  0  0  0  0
   -1.1093  -26.1483   15.2574 N   0  0  0  0  0  0  0  0  0  0  0  0
   -2.2093  -25.3949   14.6583 C   0  0  0  0  0  0  0  0  0  0  0  0
   -1.1757  -25.5075   17.6827 C   0  0  2  0  0  0  0  0  0  0  0  0
   -0.1054  -24.6444   17.2600 O   0  0  0  0  0  0  0  0  0  0  0  0
   -0.8807  -25.9985   19.1267 C   0  0  1  0  0  0  0  0  0  0  0  0
   -1.3033  -25.0239   20.1686 N   0  0  0  0  0  0  0  0  0  0  0  0
   -0.2570  -24.7637   21.1481 C   0  0  0  0  0  0  0  0  0  0  0  0
   -1.6100  -27.3270   19.3966 C   0  0  2  0  0  0  0  0  0  0  0  0
   -1.3709  -27.7573   20.7508 O   0  0  0  0  0  0  0  0  0  0  0  0
   -1.1771  -28.4561   18.4399 C   0  0  1  0  0  0  0  0  0  0  0  0
   -0.8458  -30.6356   13.8056 O   0  0  0  0  0  0  0  0  0  0  0  0
   -2.4638  -31.8168   14.8169 O   0  0  0  0  0  0  0  0  0  0  0  0
  1  2  1  0
  2  3  1  1
  2  4  1  0
  4  5  1  0
  5  6  1  0
  6  7  1  6
  8  1  1  1
  6  8  1  0
  6  9  1  0
  8 10  1  0
 11  9  1  6
 11 12  1  0
 12 13  1  6
 13 14  1  0
 12 15  1  0
 15 16  1  6
 15 17  1  0
 17 18  1  1
 18 19  1  0
 17 20  1  0
 20 21  1  1
 22 10  1  6
 11 22  1  0
 20 22  1  0
  5 23  1  6
  5 24  1  0
M  END
