
     RDKit          3D

 42 43  0  0  0  0  0  0  0  0999 V2000
   13.2320   17.9896  -19.8743 O   0  0  0  0  0  0  0  0  0  0  0  0
   26.5067    9.2479   -1.3245 O   0  0  0  0  0  0  0  0  0  0  0  0
   16.3207   16.1902  -17.6975 C   0  0  0  0  0  0  0  0  0  0  0  0
   27.3392    6.3615   -4.2469 C   0  0  2  0  0  0  0  0  0  0  0  0
   16.2557   17.7203  -17.9283 C   0  0  0  0  0  0  0  0  0  0  0  0
   27.4931    6.1467   -2.7170 C   0  0  0  0  0  0  0  0  0  0  0  0
   15.5467   15.4654  -18.8211 C   0  0  0  0  0  0  0  0  0  0  0  0
   26.4781    7.6194   -4.5431 C   0  0  0  0  0  0  0  0  0  0  0  0
   14.8392   18.2231  -18.1434 C   0  0  0  0  0  0  0  0  0  0  0  0
   27.8574    7.4090   -1.9713 C   0  0  0  0  0  0  0  0  0  0  0  0
   15.6917   15.8250  -16.3319 C   0  0  0  0  0  0  0  0  0  0  0  0
   17.8166   15.8028  -17.6500 C   0  0  0  0  0  0  0  0  0  0  0  0
   26.6813    5.0495   -4.7497 C   0  0  0  0  0  0  0  0  0  0  0  0
   28.7511    6.4978   -4.8588 C   0  0  0  0  0  0  0  0  0  0  0  0
   14.5327   16.0400  -19.5130 C   0  0  0  0  0  0  0  0  0  0  0  0
   26.1422    8.5080   -3.5632 C   0  0  0  0  0  0  0  0  0  0  0  0
   14.1449   17.4614  -19.2408 C   0  0  0  0  0  0  0  0  0  0  0  0
   26.7861    8.4339   -2.2018 C   0  0  0  0  0  0  0  0  0  0  0  0
   15.8949   14.0657  -19.0291 C   0  0  0  0  0  0  0  0  0  0  0  0
   26.0232    7.9024   -5.9159 C   0  0  0  0  0  0  0  0  0  0  0  0
   13.6564   15.3787  -20.5474 C   0  0  0  0  0  0  0  0  0  0  0  0
   25.1807    9.6735   -3.6787 C   0  0  0  0  0  0  0  0  0  0  0  0
   15.9315   13.0443  -18.1583 C   0  0  0  0  0  0  0  0  0  0  0  0
   24.8390    7.7504   -6.5373 C   0  0  0  0  0  0  0  0  0  0  0  0
   15.6910   12.9719  -16.7232 C   0  0  0  0  0  0  0  0  0  0  0  0
   24.6784    8.0453   -7.9596 C   0  0  0  0  0  0  0  0  0  0  0  0
   14.2789   12.8866  -16.2115 C   0  0  0  0  0  0  0  0  0  0  0  0
   25.8352    7.6449   -8.8312 C   0  0  0  0  0  0  0  0  0  0  0  0
   16.6820   13.0420  -15.8103 C   0  0  0  0  0  0  0  0  0  0  0  0
   23.5444    8.6238   -8.4010 C   0  0  0  0  0  0  0  0  0  0  0  0
   18.1106   12.9627  -16.0214 C   0  0  0  0  0  0  0  0  0  0  0  0
   23.2690    9.1952   -9.6963 C   0  0  0  0  0  0  0  0  0  0  0  0
   18.9755   12.0856  -15.4798 C   0  0  0  0  0  0  0  0  0  0  0  0
   22.9511    8.4083  -10.7467 C   0  0  0  0  0  0  0  0  0  0  0  0
   18.7490   11.1228  -14.4092 C   0  0  0  0  0  0  0  0  0  0  0  0
   23.0659    8.7889  -12.1529 C   0  0  0  0  0  0  0  0  0  0  0  0
   19.4496   10.0024  -14.1503 C   0  0  0  0  0  0  0  0  0  0  0  0
   21.9087    8.9342  -12.8289 C   0  0  0  0  0  0  0  0  0  0  0  0
   17.6145   11.5198  -13.4970 C   0  0  0  0  0  0  0  0  0  0  0  0
   24.4369    8.8915  -12.7433 C   0  0  0  0  0  0  0  0  0  0  0  0
   20.5840    9.4549  -14.8588 C   0  0  0  0  0  0  0  0  0  0  0  0
   21.7240    9.0469  -14.2664 C   0  0  0  0  0  0  0  0  0  0  0  0
  3  5  1  0
  4  6  1  0
  3  7  1  0
  4  8  1  0
  5  9  1  0
  6 10  1  0
  3 11  1  0
  3 12  1  0
  4 13  1  6
  4 14  1  0
  7 15  2  0
  8 16  2  0
  1 17  2  0
  9 17  1  0
 15 17  1  0
 16 18  1  0
 10 18  1  0
  2 18  2  0
  7 19  1  0
  8 20  1  0
 15 21  1  0
 16 22  1  0
 19 23  2  0
 20 24  2  0
 23 25  1  0
 24 26  1  0
 25 27  1  0
 26 28  1  0
 25 29  2  0
 26 30  2  0
 29 31  1  0
 30 32  1  0
 31 33  2  0
 32 34  2  0
 33 35  1  0
 34 36  1  0
 35 37  2  0
 36 38  2  0
 35 39  1  0
 36 40  1  0
 37 41  1  0
 41 42  2  0
 38 42  1  0
M  END
