
     RDKit          3D

 35 37  0  0  0  0  0  0  0  0999 V2000
    8.8128   10.3300   -9.5408 C   0  0  0  0  0  0  0  0  0  0  0  0
    9.3117   11.5288   -7.5717 C   0  0  0  0  0  0  0  0  0  0  0  0
   10.6396   13.1817  -10.2684 C   0  0  0  0  0  0  0  0  0  0  0  0
    9.7645   11.3964   -9.0078 C   0  0  2  0  0  0  0  0  0  0  0  0
   11.5467   15.4414  -10.7791 C   0  0  2  0  0  0  0  0  0  0  0  0
   11.3070   16.7653  -10.0109 C   0  0  0  0  0  0  0  0  0  0  0  0
   11.6055   15.6341  -12.3144 C   0  0  0  0  0  0  0  0  0  0  0  0
   11.6987   14.3375  -13.0910 C   0  0  0  0  0  0  0  0  0  0  0  0
   10.5400   13.7159  -13.5782 C   0  0  0  0  0  0  0  0  0  0  0  0
   12.9389   13.7248  -13.3111 C   0  0  0  0  0  0  0  0  0  0  0  0
   10.6219   12.5051  -14.2678 C   0  0  0  0  0  0  0  0  0  0  0  0
   13.0193   12.5156  -14.0036 C   0  0  0  0  0  0  0  0  0  0  0  0
   11.8614   11.9056  -14.4810 C   0  0  0  0  0  0  0  0  0  0  0  0
   12.1342   17.9675  -10.4973 C   0  0  0  0  0  0  0  0  0  0  0  0
   14.3541   18.4387  -11.7030 C   0  0  0  0  0  0  0  0  0  0  0  0
   14.7776   17.3970  -12.7552 C   0  0  0  0  0  0  0  0  0  0  0  0
   15.3219   19.4235   -9.1285 C   0  0  0  0  0  0  0  0  0  0  0  0
   16.3817   19.5697  -10.0246 C   0  0  0  0  0  0  0  0  0  0  0  0
   17.0651   20.7868  -10.0873 C   0  0  0  0  0  0  0  0  0  0  0  0
   16.7206   21.8459   -9.2405 C   0  0  0  0  0  0  0  0  0  0  0  0
   15.6107   21.7041   -8.4005 C   0  0  0  0  0  0  0  0  0  0  0  0
   14.9176   20.4930   -8.3276 C   0  0  0  0  0  0  0  0  0  0  0  0
   14.3869   17.8014  -14.1765 C   0  0  0  0  0  0  0  0  0  0  0  0
   16.2609   17.0386  -12.6915 C   0  0  0  0  0  0  0  0  0  0  0  0
    7.8151   11.3450   -7.6977 C   0  0  0  0  0  0  0  0  0  0  0  0
   10.4583   14.5174  -10.4344 N   0  0  0  0  0  0  0  0  0  0  0  0
   13.6195   17.8334  -10.5565 N   0  0  0  0  0  0  0  0  0  0  0  0
   17.3291   23.0951   -9.3951 N   0  0  0  0  0  0  0  0  0  0  0  0
    9.5478   12.6639   -9.6549 O   0  0  0  0  0  0  0  0  0  0  0  0
   11.6250   12.5457  -10.6074 O   0  0  0  0  0  0  0  0  0  0  0  0
    9.9058   17.1056  -10.0982 O   0  0  0  0  0  0  0  0  0  0  0  0
   15.4215   16.8052   -9.0901 O   0  0  0  0  0  0  0  0  0  0  0  0
   13.4804   17.9864   -7.9932 O   0  0  0  0  0  0  0  0  0  0  0  0
    7.6076   10.3951   -8.7490 O   0  0  0  0  0  0  0  0  0  0  0  0
   14.4504   17.8768   -9.0608 S   0  0  1  0  0  6  0  0  0  0  0  0
  1  4  1  0
  2  4  1  0
  5  6  1  0
  5  7  1  6
  7  8  1  0
  8  9  4  0
  8 10  4  0
  9 11  4  0
 10 12  4  0
 11 13  4  0
 12 13  4  0
  6 14  1  0
 15 16  1  0
 17 18  4  0
 18 19  4  0
 19 20  4  0
 20 21  4  0
 17 22  4  0
 21 22  4  0
 16 23  1  0
 16 24  1  0
  2 25  1  0
  3 26  1  0
  5 26  1  0
 14 27  1  0
 15 27  1  0
 20 28  1  0
  3 29  1  0
  4 29  1  6
  3 30  2  0
  6 31  1  0
  1 34  1  0
 25 34  1  0
 17 35  1  0
 35 27  1  6
 32 35  2  0
 33 35  2  0
M  END
