6XM9_V55_A_501
     RDKit          3D

 19 19  0  0  0  0  0  0  0  0999 V2000
   23.4554   14.0271   35.4637 C   0  0  0  0  0  0  0  0  0  0  0  0
   22.6468   14.7724   36.3397 C   0  0  0  0  0  0  0  0  0  0  0  0
   22.9932   14.9025   37.7002 C   0  0  0  0  0  0  0  0  0  0  0  0
   24.1607   14.2766   38.1745 C   0  0  0  0  0  0  0  0  0  0  0  0
   24.9626   13.5362   37.3009 C   0  0  0  0  0  0  0  0  0  0  0  0
   22.0709   14.4229   33.5634 O   0  0  0  0  0  0  0  0  0  0  0  0
   24.6142   13.4112   35.9551 C   0  0  0  0  0  0  0  0  0  0  0  0
   23.1052   13.8826   34.0382 C   0  0  0  0  0  0  0  0  0  0  0  0
   21.0054   16.3207   38.2549 C   0  0  2  0  0  0  0  0  0  0  0  0
   22.2072   15.6396   38.6006 O   0  0  0  0  0  0  0  0  0  0  0  0
   24.5407   14.3793   39.5127 O   0  0  0  0  0  0  0  0  0  0  0  0
   21.7526   15.2473   35.9596 H   0  0  0  0  0  0  0  0  0  0  0  0
   25.8606   13.0553   37.6678 H   0  0  0  0  0  0  0  0  0  0  0  0
   25.2507   12.8326   35.2965 H   0  0  0  0  0  0  0  0  0  0  0  0
   23.7418   13.3042   33.3807 H   0  0  0  0  0  0  0  0  0  0  0  0
   21.2131   17.0965   37.4879 H   0  0  0  0  0  0  0  0  0  0  0  0
   20.5972   16.8165   39.1593 H   0  0  0  0  0  0  0  0  0  0  0  0
   20.2523   15.5982   37.8755 H   0  0  0  0  0  0  0  0  0  0  0  0
   23.9982   14.9023   40.1895 H   0  0  0  0  0  0  0  0  0  0  0  0
  1  2  2  0
  2  3  1  0
  3  4  2  0
  4  5  1  0
  1  7  1  0
  5  7  2  0
  1  8  1  0
  6  8  2  0
  3 10  1  0
  9 10  1  0
  4 11  1  0
  2 12  1  0
  5 13  1  0
  7 14  1  0
  8 15  1  0
  9 16  1  6
  9 17  1  0
  9 18  1  0
 11 19  1  0
M  END
