7ZXZ_K9R_B_201
     RDKit          3D

 62 65  0  0  0  0  0  0  0  0999 V2000
   44.6010  -21.5293    7.4547 N   0  0  0  0  0  0  0  0  0  0  0  0
   46.9912  -19.5672   13.7059 C   0  0  2  0  0  0  0  0  0  0  0  0
   46.0763  -18.7873   14.6625 C   0  0  1  0  0  0  0  0  0  0  0  0
   43.5336  -18.9073   14.5346 N   0  0  0  0  0  0  0  0  0  0  0  0
   44.7788  -19.5010   14.9293 C   0  0  0  0  0  0  0  0  0  0  0  0
   42.4053  -18.4579   17.2528 O   0  0  0  0  0  0  0  0  0  0  0  0
   45.1476  -20.0659    9.2868 C   0  0  2  0  0  0  0  0  0  0  0  0
   46.7686  -20.3411   11.3096 C   0  0  2  0  0  0  0  0  0  0  0  0
   46.8230  -19.1235   12.2446 C   0  0  2  0  0  0  0  0  0  0  0  0
   45.3599  -20.5677   10.7290 C   0  0  2  0  0  0  0  0  0  0  0  0
   43.5587  -21.9843    9.6297 C   0  0  2  0  0  0  0  0  0  0  0  0
   44.7889  -20.6040   15.5411 O   0  0  0  0  0  0  0  0  0  0  0  0
   44.0112  -20.9113    8.6391 C   0  0  2  0  0  0  0  0  0  0  0  0
   46.3216  -20.2806    8.4400 N   0  0  0  0  0  0  0  0  0  0  0  0
   44.9437  -22.3359   10.7471 S   0  0  0  0  0  0  0  0  0  0  0  0
   45.9477  -21.1300    7.3829 C   0  0  0  0  0  0  0  0  0  0  0  0
   46.7312  -21.4860    6.4651 O   0  0  0  0  0  0  0  0  0  0  0  0
   42.2458  -19.3840   15.0508 C   0  0  2  0  0  0  0  0  0  0  0  0
   41.1233  -19.2505   14.0015 C   0  0  2  0  0  0  0  0  0  0  0  0
   40.1450  -18.2931   14.6015 C   0  0  0  0  0  0  0  0  0  0  0  0
   39.1215  -17.9493   14.0275 O   0  0  0  0  0  0  0  0  0  0  0  0
   40.5143  -17.8056   15.9598 C   0  0  1  0  0  0  0  0  0  0  0  0
   41.7947  -18.5280   16.1968 C   0  0  0  0  0  0  0  0  0  0  0  0
   40.7035  -16.3031   15.9977 C   0  0  0  0  0  0  0  0  0  0  0  0
   39.9419  -15.5275   16.8856 C   0  0  0  0  0  0  0  0  0  0  0  0
   40.1048  -14.1339   16.9400 C   0  0  0  0  0  0  0  0  0  0  0  0
   39.2546  -13.3086   17.8629 C   0  0  1  0  0  0  0  0  0  0  0  0
   37.7308  -14.2147   18.2668 S   0  0  0  0  0  0  0  0  0  0  0  0
   41.0275  -13.5114   16.0870 C   0  0  0  0  0  0  0  0  0  0  0  0
   41.8095  -14.2748   15.2077 C   0  0  0  0  0  0  0  0  0  0  0  0
   41.6376  -15.6659   15.1596 C   0  0  0  0  0  0  0  0  0  0  0  0
   42.7792  -13.6013   14.2788 C   0  0  1  0  0  0  0  0  0  0  0  0
   42.1618  -13.6810   12.5708 S   0  0  0  0  0  0  0  0  0  0  0  0
   44.1157  -22.1659    6.7846 H   0  0  0  0  0  0  0  0  0  0  0  0
   46.7911  -20.6573   13.7992 H   0  0  0  0  0  0  0  0  0  0  0  0
   48.0452  -19.3938   14.0147 H   0  0  0  0  0  0  0  0  0  0  0  0
   46.6026  -18.6516   15.6319 H   0  0  0  0  0  0  0  0  0  0  0  0
   45.8840  -17.7761   14.2431 H   0  0  0  0  0  0  0  0  0  0  0  0
   43.5614  -18.0813   13.8960 H   0  0  0  0  0  0  0  0  0  0  0  0
   44.8824  -18.9858    9.2832 H   0  0  0  0  0  0  0  0  0  0  0  0
   47.0543  -21.2426   11.8951 H   0  0  0  0  0  0  0  0  0  0  0  0
   47.5128  -20.2349   10.4918 H   0  0  0  0  0  0  0  0  0  0  0  0
   47.6738  -18.4664   11.9643 H   0  0  0  0  0  0  0  0  0  0  0  0
   45.8823  -18.5423   12.1348 H   0  0  0  0  0  0  0  0  0  0  0  0
   44.6223  -20.0569   11.3887 H   0  0  0  0  0  0  0  0  0  0  0  0
   43.2332  -22.9120    9.1135 H   0  0  0  0  0  0  0  0  0  0  0  0
   42.7072  -21.5998   10.2323 H   0  0  0  0  0  0  0  0  0  0  0  0
   43.1539  -20.2695    8.3368 H   0  0  0  0  0  0  0  0  0  0  0  0
   47.2405  -19.7893    8.5195 H   0  0  0  0  0  0  0  0  0  0  0  0
   42.3283  -20.4458   15.3741 H   0  0  0  0  0  0  0  0  0  0  0  0
   40.6280  -20.2328   13.8370 H   0  0  0  0  0  0  0  0  0  0  0  0
   41.4840  -18.8590   13.0262 H   0  0  0  0  0  0  0  0  0  0  0  0
   39.7529  -18.1478   16.6940 H   0  0  0  0  0  0  0  0  0  0  0  0
   39.2163  -16.0056   17.5333 H   0  0  0  0  0  0  0  0  0  0  0  0
   39.8059  -13.0834   18.8014 H   0  0  0  0  0  0  0  0  0  0  0  0
   38.9884  -12.3404   17.3855 H   0  0  0  0  0  0  0  0  0  0  0  0
   37.1910  -13.1233   18.9767 H   0  0  0  0  0  0  0  0  0  0  0  0
   41.1359  -12.4325   16.1069 H   0  0  0  0  0  0  0  0  0  0  0  0
   42.2273  -16.2524   14.4659 H   0  0  0  0  0  0  0  0  0  0  0  0
   42.9253  -12.5390   14.5686 H   0  0  0  0  0  0  0  0  0  0  0  0
   43.7696  -14.1018   14.3263 H   0  0  0  0  0  0  0  0  0  0  0  0
   42.5258  -12.3476   12.2924 H   0  0  0  0  0  0  0  0  0  0  0  0
  2  3  1  0
  3  5  1  0
  4  5  1  0
  8  9  1  0
  2  9  1  0
  7 10  1  0
 10  8  1  0
  5 12  2  0
  1 13  1  0
 13 11  1  0
  7 13  1  0
  7 14  1  0
 11 15  1  0
 10 15  1  0
  1 16  1  0
 14 16  1  0
 16 17  2  0
 18  4  1  0
 18 19  1  0
 19 20  1  0
 20 21  2  0
 20 22  1  0
 18 23  1  0
 22 23  1  0
  6 23  2  0
 22 24  1  0
 24 25  2  0
 25 26  1  0
 26 27  1  0
 27 28  1  0
 26 29  2  0
 29 30  1  0
 24 31  1  0
 30 31  2  0
 30 32  1  0
 32 33  1  0
  1 34  1  0
  2 35  1  6
  2 36  1  0
  3 37  1  1
  3 38  1  0
  4 39  1  0
  7 40  1  1
  8 41  1  1
  8 42  1  0
  9 43  1  6
  9 44  1  0
 10 45  1  1
 11 46  1  6
 11 47  1  0
 13 48  1  6
 14 49  1  0
 18 50  1  1
 19 51  1  6
 19 52  1  0
 22 53  1  1
 25 54  1  0
 27 55  1  1
 27 56  1  0
 28 57  1  0
 29 58  1  0
 31 59  1  0
 32 60  1  1
 32 61  1  0
 33 62  1  0
M  END
