7BJJ_TVW_A_301
     RDKit          3D

 10 11  0  0  0  0  0  0  0  0999 V2000
    4.6639   -2.7292   19.3886 C   0  0  0  0  0  0  0  0  0  0  0  0
    4.5343   -1.5655   20.1773 N   0  0  0  0  0  0  0  0  0  0  0  0
    3.8335   -4.6834   18.4217 C   0  0  0  0  0  0  0  0  0  0  0  0
    3.6319   -3.5994   19.1839 N   0  0  0  0  0  0  0  0  0  0  0  0
    6.0934   -4.1023   18.0229 C   0  0  0  0  0  0  0  0  0  0  0  0
    5.0335   -4.9166   17.8634 N   0  0  0  0  0  0  0  0  0  0  0  0
    5.8935   -2.9744   18.8126 C   0  0  0  0  0  0  0  0  0  0  0  0
    7.9843   -3.0050   18.0801 N   0  0  0  0  0  0  0  0  0  0  0  0
    7.1091   -2.3050   18.8263 C   0  0  0  0  0  0  0  0  0  0  0  0
    7.3550   -4.0727   17.6116 N   0  0  0  0  0  0  0  0  0  0  0  0
  1  2  1  0
  1  4  2  0
  3  4  1  0
  5  6  1  0
  3  6  2  0
  1  7  1  0
  5  7  1  0
  8  9  1  0
  7  9  2  0
  8 10  1  0
  5 10  2  0
M  END
$$$$
