7ZYS_KNR_B_201
     RDKit          3D

 93 94  0  0  0  0  0  0  0  0999 V2000
    9.7257  -17.3571    4.0025 N   0  0  0  0  0  0  0  0  0  0  0  0
    3.0850  -10.9823   -0.0750 C   0  0  0  0  0  0  0  0  0  0  0  0
    2.4373   -9.6684    0.2902 C   0  0  2  0  0  0  0  0  0  0  0  0
   11.0310  -16.6221    2.1887 N   0  0  0  0  0  0  0  0  0  0  0  0
    3.4778   -8.5303    0.3026 C   0  0  2  0  0  0  0  0  0  0  0  0
    5.9839  -19.0234    6.9450 O   0  0  0  0  0  0  0  0  0  0  0  0
    7.2388  -16.8406    2.3631 C   0  0  1  0  0  0  0  0  0  0  0  0
    5.0454  -13.6720    1.7877 C   0  0  1  0  0  0  0  0  0  0  0  0
    4.5789  -12.9272    0.5339 C   0  0  1  0  0  0  0  0  0  0  0  0
    3.8691  -11.6979    0.8872 N   0  0  0  0  0  0  0  0  0  0  0  0
    5.9087  -14.8835    1.4167 C   0  0  1  0  0  0  0  0  0  0  0  0
    2.9355  -11.4434   -1.2387 O   0  0  0  0  0  0  0  0  0  0  0  0
    6.1967  -15.7437    2.6517 C   0  0  2  0  0  0  0  0  0  0  0  0
    0.2153  -11.3650    0.8884 O   0  0  0  0  0  0  0  0  0  0  0  0
    9.7695  -16.7754    2.8419 C   0  0  0  0  0  0  0  0  0  0  0  0
    1.7850   -9.7819    1.6022 N   0  0  0  0  0  0  0  0  0  0  0  0
    8.5824  -16.2602    2.2074 N   0  0  0  0  0  0  0  0  0  0  0  0
    7.2191  -17.8352    3.4958 C   0  0  0  0  0  0  0  0  0  0  0  0
    8.0339  -17.7261    4.4524 O   0  0  0  0  0  0  0  0  0  0  0  0
    4.4346   -8.5960   -0.9029 C   0  0  1  0  0  0  0  0  0  0  0  0
    3.6969   -8.8239   -2.2309 C   0  0  1  0  0  0  0  0  0  0  0  0
    4.6357   -8.8364   -3.4351 C   0  0  2  0  0  0  0  0  0  0  0  0
    0.7247  -10.7199    1.8464 C   0  0  0  0  0  0  0  0  0  0  0  0
    0.1663  -10.9065    3.2309 C   0  0  2  0  0  0  0  0  0  0  0  0
   -0.7636   -9.7297    3.5891 C   0  0  1  0  0  0  0  0  0  0  0  0
   -1.9116   -9.5185    2.5856 C   0  0  2  0  0  0  0  0  0  0  0  0
   -3.1887  -10.2874    2.9598 C   0  0  2  0  0  0  0  0  0  0  0  0
   -3.6052  -11.2974    1.8746 C   0  0  2  0  0  0  0  0  0  0  0  0
    1.7377  -12.3033    4.6544 C   0  0  0  0  0  0  0  0  0  0  0  0
    2.3855  -12.4153    6.0054 C   0  0  1  0  0  0  0  0  0  0  0  0
    3.4573  -13.4729    6.0374 C   0  0  0  0  0  0  0  0  0  0  0  0
    3.1166  -14.8160    6.2785 C   0  0  0  0  0  0  0  0  0  0  0  0
    4.1126  -15.8054    6.3474 C   0  0  0  0  0  0  0  0  0  0  0  0
    3.7481  -17.2364    6.6450 C   0  0  1  0  0  0  0  0  0  0  0  0
    5.4424  -18.9435    5.8092 C   0  0  0  0  0  0  0  0  0  0  0  0
    6.0104  -19.7317    4.6683 C   0  0  2  0  0  0  0  0  0  0  0  0
    5.4576  -15.4340    6.1919 C   0  0  0  0  0  0  0  0  0  0  0  0
    5.7989  -14.1032    5.9317 C   0  0  0  0  0  0  0  0  0  0  0  0
    4.8022  -13.1270    5.8416 C   0  0  0  0  0  0  0  0  0  0  0  0
   -3.1471  -10.9069    0.5436 N   0  0  0  0  0  0  0  0  0  0  0  0
    1.2565  -11.0311    4.2059 N   0  0  0  0  0  0  0  0  0  0  0  0
    4.2793  -18.1243    5.6111 N   0  0  0  0  0  0  0  0  0  0  0  0
    6.2235  -18.8669    3.5124 N   0  0  0  0  0  0  0  0  0  0  0  0
    1.5329  -13.3369    3.9610 O   0  0  0  0  0  0  0  0  0  0  0  0
    8.8470  -17.5109    4.5423 H   0  0  0  0  0  0  0  0  0  0  0  0
    1.6556   -9.4174   -0.4631 H   0  0  0  0  0  0  0  0  0  0  0  0
   11.9060  -16.4864    2.7460 H   0  0  0  0  0  0  0  0  0  0  0  0
   11.0916  -16.5878    1.1437 H   0  0  0  0  0  0  0  0  0  0  0  0
    4.0619   -8.5642    1.2498 H   0  0  0  0  0  0  0  0  0  0  0  0
    2.9351   -7.5608    0.2742 H   0  0  0  0  0  0  0  0  0  0  0  0
    6.9526  -17.3537    1.4199 H   0  0  0  0  0  0  0  0  0  0  0  0
    5.6414  -12.9874    2.4305 H   0  0  0  0  0  0  0  0  0  0  0  0
    4.1504  -14.0016    2.3636 H   0  0  0  0  0  0  0  0  0  0  0  0
    5.4511  -12.6660   -0.1053 H   0  0  0  0  0  0  0  0  0  0  0  0
    3.9005  -13.5970   -0.0406 H   0  0  0  0  0  0  0  0  0  0  0  0
    3.9368  -11.3221    1.8591 H   0  0  0  0  0  0  0  0  0  0  0  0
    5.3819  -15.5039    0.6577 H   0  0  0  0  0  0  0  0  0  0  0  0
    6.8623  -14.5256    0.9736 H   0  0  0  0  0  0  0  0  0  0  0  0
    6.5631  -15.1029    3.4799 H   0  0  0  0  0  0  0  0  0  0  0  0
    5.2401  -16.2073    2.9790 H   0  0  0  0  0  0  0  0  0  0  0  0
    2.1149   -9.1878    2.3928 H   0  0  0  0  0  0  0  0  0  0  0  0
    8.6920  -15.3936    1.6329 H   0  0  0  0  0  0  0  0  0  0  0  0
    4.9876   -7.6372   -0.9919 H   0  0  0  0  0  0  0  0  0  0  0  0
    5.1833   -9.4042   -0.7500 H   0  0  0  0  0  0  0  0  0  0  0  0
    3.1207   -9.7752   -2.1911 H   0  0  0  0  0  0  0  0  0  0  0  0
    2.9664   -7.9993   -2.3742 H   0  0  0  0  0  0  0  0  0  0  0  0
    5.6314   -9.2409   -3.1559 H   0  0  0  0  0  0  0  0  0  0  0  0
    4.7478   -7.8113   -3.8490 H   0  0  0  0  0  0  0  0  0  0  0  0
    4.2088   -9.4919   -4.2214 H   0  0  0  0  0  0  0  0  0  0  0  0
   -0.4423  -11.8387    3.2330 H   0  0  0  0  0  0  0  0  0  0  0  0
   -1.2147   -9.9076    4.5909 H   0  0  0  0  0  0  0  0  0  0  0  0
   -0.1648   -8.7943    3.6546 H   0  0  0  0  0  0  0  0  0  0  0  0
   -1.5592   -9.8645    1.5897 H   0  0  0  0  0  0  0  0  0  0  0  0
   -2.1335   -8.4349    2.4997 H   0  0  0  0  0  0  0  0  0  0  0  0
   -4.0231   -9.5778    3.1335 H   0  0  0  0  0  0  0  0  0  0  0  0
   -3.0120  -10.8462    3.9042 H   0  0  0  0  0  0  0  0  0  0  0  0
   -4.7162  -11.3669    1.8638 H   0  0  0  0  0  0  0  0  0  0  0  0
   -3.2117  -12.3083    2.1254 H   0  0  0  0  0  0  0  0  0  0  0  0
    2.8163  -11.4345    6.3016 H   0  0  0  0  0  0  0  0  0  0  0  0
    1.5987  -12.6547    6.7510 H   0  0  0  0  0  0  0  0  0  0  0  0
    2.0779  -15.0839    6.4213 H   0  0  0  0  0  0  0  0  0  0  0  0
    4.1397  -17.5113    7.6489 H   0  0  0  0  0  0  0  0  0  0  0  0
    2.6446  -17.3607    6.6808 H   0  0  0  0  0  0  0  0  0  0  0  0
    5.2950  -20.5396    4.4030 H   0  0  0  0  0  0  0  0  0  0  0  0
    6.9718  -20.2097    4.9603 H   0  0  0  0  0  0  0  0  0  0  0  0
    6.2449  -16.1747    6.2629 H   0  0  0  0  0  0  0  0  0  0  0  0
    6.8375  -13.8278    5.7985 H   0  0  0  0  0  0  0  0  0  0  0  0
    5.0814  -12.1026    5.6344 H   0  0  0  0  0  0  0  0  0  0  0  0
   -3.9651  -10.8437   -0.1038 H   0  0  0  0  0  0  0  0  0  0  0  0
   -2.7036   -9.9579    0.5946 H   0  0  0  0  0  0  0  0  0  0  0  0
    1.6453  -10.1669    4.6483 H   0  0  0  0  0  0  0  0  0  0  0  0
    3.8436  -18.0862    4.6591 H   0  0  0  0  0  0  0  0  0  0  0  0
    5.5960  -18.9801    2.6827 H   0  0  0  0  0  0  0  0  0  0  0  0
  2  3  1  0
  3  5  1  0
  8  9  1  0
  2 10  1  0
  9 10  1  0
  8 11  1  0
  2 12  2  0
  7 13  1  0
 11 13  1  0
  1 15  2  0
  4 15  1  0
  3 16  1  0
  7 17  1  0
 15 17  1  0
  7 18  1  0
 18 19  2  0
  5 20  1  0
 20 21  1  0
 21 22  1  0
 16 23  1  0
 14 23  2  0
 23 24  1  0
 24 25  1  0
 25 26  1  0
 26 27  1  0
 27 28  1  0
 29 30  1  0
 30 31  1  0
 31 32  2  0
 32 33  1  0
 33 34  1  0
  6 35  2  0
 35 36  1  0
 33 37  2  0
 37 38  1  0
 31 39  1  0
 38 39  2  0
 28 40  1  0
 29 41  1  0
 24 41  1  0
 34 42  1  0
 35 42  1  0
 36 43  1  0
 18 43  1  0
 29 44  2  0
  1 45  1  0
  3 46  1  6
  4 47  1  0
  4 48  1  0
  5 49  1  1
  5 50  1  0
  7 51  1  6
  8 52  1  1
  8 53  1  0
  9 54  1  6
  9 55  1  0
 10 56  1  0
 11 57  1  6
 11 58  1  0
 13 59  1  1
 13 60  1  0
 16 61  1  0
 17 62  1  0
 20 63  1  6
 20 64  1  0
 21 65  1  1
 21 66  1  0
 22 67  1  1
 22 68  1  0
 22 69  1  0
 24 70  1  6
 25 71  1  1
 25 72  1  0
 26 73  1  6
 26 74  1  0
 27 75  1  1
 27 76  1  0
 28 77  1  6
 28 78  1  0
 30 79  1  1
 30 80  1  0
 32 81  1  0
 34 82  1  1
 34 83  1  0
 36 84  1  6
 36 85  1  0
 37 86  1  0
 38 87  1  0
 39 88  1  0
 40 89  1  0
 40 90  1  0
 41 91  1  0
 42 92  1  0
 43 93  1  0
M  END
