
     RDKit          3D

 24 25  0  0  0  0  0  0  0  0999 V2000
   15.6728    9.7578   38.0293 C   0  0  0  0  0  0  0  0  0  0  0  0
   14.3238    9.8768   34.4874 C   0  0  0  0  0  0  0  0  0  0  0  0
   12.5867   14.0094   42.3018 O   0  0  0  0  0  0  0  0  0  0  0  0
   11.7505   12.8154   41.6540 P   0  0  0  0  0  5  0  0  0  0  0  0
   10.4400   12.6080   42.3281 O   0  0  0  0  0  0  0  0  0  0  0  0
   12.7377   11.5730   41.8012 O   0  0  0  0  0  0  0  0  0  0  0  0
   11.6979   13.1512   40.0924 O   0  0  0  0  0  0  0  0  0  0  0  0
   12.7148   12.6258   39.2565 C   0  0  0  0  0  0  0  0  0  0  0  0
   12.0918   11.7347   38.1804 C   0  0  2  0  0  0  0  0  0  0  0  0
   11.5643   10.4055   38.7294 C   0  0  1  0  0  0  0  0  0  0  0  0
   10.5047    9.9211   37.8867 O   0  0  0  0  0  0  0  0  0  0  0  0
   12.7706    9.4900   38.5932 C   0  0  1  0  0  0  0  0  0  0  0  0
   12.3679    8.1188   38.5450 O   0  0  0  0  0  0  0  0  0  0  0  0
   13.1023   11.4176   37.1899 O   0  0  0  0  0  0  0  0  0  0  0  0
   13.3476    9.9999   37.2564 C   0  0  1  0  0  0  0  0  0  0  0  0
   14.7679    9.7632   36.9777 N   0  0  0  0  0  0  0  0  0  0  0  0
   15.2217    9.6526   35.6629 C   0  0  0  0  0  0  0  0  0  0  0  0
   16.5082    9.4339   35.3647 C   0  0  0  0  0  0  0  0  0  0  0  0
   17.4751    9.3117   36.4558 C   0  0  0  0  0  0  0  0  0  0  0  0
   18.6611    9.1025   36.2346 O   0  0  0  0  0  0  0  0  0  0  0  0
   16.9729    9.4784   37.7084 N   0  0  0  0  0  0  0  0  0  0  0  0
   15.3902    9.9837   39.2034 O   0  0  0  0  0  0  0  0  0  0  0  0
   13.6434   11.3244   34.0065 S   0  0  0  0  0  0  0  0  0  0  0  0
   14.0513    8.7377   33.7798 N   0  0  0  0  0  0  0  0  0  0  0  0
  3  4  1  0
  4  5  2  0
  4  6  1  0
  4  7  1  0
  7  8  1  0
  9  8  1  1
  9 10  1  0
 10 11  1  6
 10 12  1  0
 12 13  1  6
  9 14  1  0
 14 15  1  0
 12 15  1  0
 15 16  1  1
  1 16  4  0
  2 17  1  0
 16 17  4  0
 17 18  4  0
 18 19  4  0
 19 20  2  0
 19 21  4  0
  1 21  4  0
  1 22  2  0
  2 23  2  0
  2 24  1  0
M  END
