8F8E_XJI_A_1401
     RDKit          3D

 43 45  0  0  0  0  0  0  0  0999 V2000
  -21.9073  -20.0794    2.8346 N   0  0  0  0  0  0  0  0  0  0  0  0
  -22.2594  -24.7538    1.0996 C   0  0  0  0  0  0  0  0  0  0  0  0
  -22.6746  -24.2167    2.2883 C   0  0  0  0  0  0  0  0  0  0  0  0
  -22.3559  -20.7032   -1.3668 N   0  0  0  0  0  0  0  0  0  0  0  0
  -22.6800  -22.8452    2.4420 C   0  0  0  0  0  0  0  0  0  0  0  0
  -19.9612  -20.8265    2.0249 O   0  0  0  0  0  0  0  0  0  0  0  0
  -22.5201  -19.5071    0.7123 C   0  0  0  0  0  0  0  0  0  0  0  0
  -21.8823  -22.6038    0.2272 C   0  0  0  0  0  0  0  0  0  0  0  0
  -21.8596  -23.9648    0.0424 C   0  0  0  0  0  0  0  0  0  0  0  0
  -21.2030  -19.0664    1.3747 N   0  0  0  0  0  0  0  0  0  0  0  0
  -22.2711  -22.0056    1.4128 C   0  0  0  0  0  0  0  0  0  0  0  0
  -22.2388  -20.5541    1.6233 C   0  0  0  0  0  0  0  0  0  0  0  0
  -22.3605  -18.3601    1.4548 C   0  0  0  0  0  0  0  0  0  0  0  0
  -20.4793  -20.1484    1.1398 C   0  0  0  0  0  0  0  0  0  0  0  0
  -20.1655  -20.4272   -0.3052 C   0  0  0  0  0  0  0  0  0  0  0  0
  -21.1813  -21.4167   -0.8598 C   0  0  1  0  0  0  0  0  0  0  0  0
  -21.5020  -22.4177    0.2203 C   0  0  0  0  0  0  0  0  0  0  0  0
  -21.7705  -21.9797    1.5124 C   0  0  0  0  0  0  0  0  0  0  0  0
  -22.2182  -22.8574    2.4864 C   0  0  0  0  0  0  0  0  0  0  0  0
  -22.4059  -24.1708    2.1523 C   0  0  0  0  0  0  0  0  0  0  0  0
  -22.9746  -25.0034    3.0609 F   0  0  0  0  0  0  0  0  0  0  0  0
  -22.1131  -24.6392    0.8778 C   0  0  0  0  0  0  0  0  0  0  0  0
  -22.2947  -26.3146    0.4830 Cl  0  0  0  0  0  0  0  0  0  0  0  0
  -21.6564  -23.7627   -0.0822 C   0  0  0  0  0  0  0  0  0  0  0  0
  -22.8144  -19.6174   -0.7333 C   0  0  0  0  0  0  0  0  0  0  0  0
  -23.4748  -18.7623   -1.2994 O   0  0  0  0  0  0  0  0  0  0  0  0
  -22.0018  -18.7393    2.6879 N   0  0  0  0  0  4  0  0  0  0  0  0
  -22.2317  -26.4786    0.9221 Cl  0  0  0  0  0  0  0  0  0  0  0  0
  -21.4946  -21.8254   -0.7959 F   0  0  0  0  0  0  0  0  0  0  0  0
  -22.9800  -24.8299    3.0601 H   0  0  0  0  0  0  0  0  0  0  0  0
  -22.8108  -21.0246   -2.1786 H   0  0  0  0  0  0  0  0  0  0  0  0
  -22.9929  -22.4362    3.3364 H   0  0  0  0  0  0  0  0  0  0  0  0
  -21.5554  -24.3799   -0.8521 H   0  0  0  0  0  0  0  0  0  0  0  0
  -21.4438  -18.8262    2.2986 H   0  0  0  0  0  0  0  0  0  0  0  0
  -21.5009  -18.5012    0.6256 H   0  0  0  0  0  0  0  0  0  0  0  0
  -22.4921  -17.3913    1.1242 H   0  0  0  0  0  0  0  0  0  0  0  0
  -19.1826  -20.8425   -0.3837 H   0  0  0  0  0  0  0  0  0  0  0  0
  -20.2116  -19.5158   -0.8640 H   0  0  0  0  0  0  0  0  0  0  0  0
  -20.7858  -21.9546   -1.6960 H   0  0  0  0  0  0  0  0  0  0  0  0
  -21.6341  -20.9847    1.7496 H   0  0  0  0  0  0  0  0  0  0  0  0
  -22.4066  -22.5267    3.4457 H   0  0  0  0  0  0  0  0  0  0  0  0
  -21.4288  -24.1074   -1.0279 H   0  0  0  0  0  0  0  0  0  0  0  0
  -21.8240  -18.1029    3.4176 H   0  0  0  0  0  0  0  0  0  0  0  0
  2  3  4  0
  3  5  4  0
  2  9  4  0
  8  9  4  0
  8 11  4  0
  5 11  4  0
 11 12  1  0
  7 12  4  0
  1 12  4  0
  7 13  4  0
  6 14  2  0
 10 14  1  0
 14 15  1  0
 16 15  1  0
  4 16  1  0
 16 17  1  0
 17 18  4  0
 18 19  4  0
 19 20  4  0
 20 21  1  0
 20 22  4  0
 22 23  1  0
 17 24  4  0
 22 24  4  0
  4 25  1  0
  7 25  1  0
 25 26  2  0
  1 27  4  0
 13 27  4  0
  2 28  1  0
  8 29  1  0
  3 30  1  0
  4 31  1  0
  5 32  1  0
  9 33  1  0
 10 34  1  0
 10 35  1  0
 13 36  1  0
 15 37  1  0
 15 38  1  0
 16 39  1  6
 18 40  1  0
 19 41  1  0
 24 42  1  0
 27 43  1  0
M  CHG  1  27   1
M  END
