8BTI_RFO_A_510
     RDKit          3D

 15 16  0  0  0  0  0  0  0  0999 V2000
   19.0958   66.9955   76.5946 C   0  0  0  0  0  0  0  0  0  0  0  0
   21.0366   68.1744   75.9175 C   0  0  0  0  0  0  0  0  0  0  0  0
   20.9003   68.4836   74.4796 C   0  0  0  0  0  0  0  0  0  0  0  0
   23.4313   68.4728   74.3566 C   0  0  0  0  0  0  0  0  0  0  0  0
   24.4388   68.7019   73.2762 C   0  0  0  0  0  0  0  0  0  0  0  0
   23.6008   69.2186   72.1006 C   0  0  0  0  0  0  0  0  0  0  0  0
   23.9703   69.8007   70.8880 C   0  0  0  0  0  0  0  0  0  0  0  0
   23.0123   70.2571   69.9517 C   0  0  0  0  0  0  0  0  0  0  0  0
   21.6581   70.1288   70.2862 C   0  0  0  0  0  0  0  0  0  0  0  0
   21.2488   69.5471   71.4664 C   0  0  0  0  0  0  0  0  0  0  0  0
   22.2398   69.1007   72.4032 C   0  0  0  0  0  0  0  0  0  0  0  0
   22.1054   68.5934   73.7546 N   0  0  0  0  0  0  0  0  0  0  0  0
   19.7376   68.2528   76.4727 O   0  0  0  0  0  0  0  0  0  0  0  0
   19.8474   68.5699   73.8989 O   0  0  0  0  0  0  0  0  0  0  0  0
   25.6709   69.9062   70.6014 Cl  0  0  0  0  0  0  0  0  0  0  0  0
  2  3  1  0
  4  5  2  0
  5  6  1  0
  6  7  1  0
  7  8  2  0
  8  9  1  0
  9 10  2  0
  6 11  2  0
 10 11  1  0
  4 12  1  0
  3 12  1  0
 11 12  1  0
  2 13  1  0
  1 13  1  0
  3 14  2  0
  7 15  1  0
M  END
