1R1H_BIR_A_2001
     RDKit          3D

 29 30  0  0  0  0  0  0  0  0999 V2000
   26.7160   42.0337   30.8586 C   0  0  0  0  0  0  0  0  0  0  0  0
   27.6410   42.9821   30.1367 C   0  0  2  0  0  0  0  0  0  0  0  0
   28.0526   42.3958   28.8954 N   0  0  0  0  0  0  0  0  0  0  0  0
   29.0483   43.4634   31.1798 P   0  0  1  0  0  5  0  0  0  0  0  0
   29.7587   42.2153   31.6503 O   0  0  0  0  0  0  0  0  0  0  0  0
   30.1497   44.3213   30.2238 O   0  0  0  0  0  0  0  0  0  0  0  0
   28.4884   44.4948   32.5784 C   0  0  0  0  0  0  0  0  0  0  0  0
   29.5672   44.5902   33.6353 C   0  0  2  0  0  0  0  0  0  0  0  0
   29.2438   43.8985   34.8722 C   0  0  0  0  0  0  0  0  0  0  0  0
   28.3855   44.2608   35.7199 O   0  0  0  0  0  0  0  0  0  0  0  0
   29.9499   42.6866   35.1872 N   0  0  0  0  0  0  0  0  0  0  0  0
   29.6078   41.9307   36.3889 C   0  0  1  0  0  0  0  0  0  0  0  0
   29.3903   40.4934   35.9788 C   0  0  0  0  0  0  0  0  0  0  0  0
   30.7061   41.9976   37.3698 C   0  0  0  0  0  0  0  0  0  0  0  0
   30.4113   41.6154   38.6819 O   0  0  0  0  0  0  0  0  0  0  0  0
   31.8669   42.3660   37.1197 O   0  0  0  0  0  0  0  0  0  0  0  0
   30.0495   45.9906   33.7829 C   0  0  0  0  0  0  0  0  0  0  0  0
   31.2960   46.0968   34.5827 C   0  0  0  0  0  0  0  0  0  0  0  0
   32.5564   45.9080   34.0553 C   0  0  0  0  0  0  0  0  0  0  0  0
   33.6656   46.0309   34.8981 C   0  0  0  0  0  0  0  0  0  0  0  0
   33.4749   46.3406   36.2486 C   0  0  0  0  0  0  0  0  0  0  0  0
   32.2107   46.5301   36.7780 C   0  0  0  0  0  0  0  0  0  0  0  0
   31.1221   46.4064   35.9371 C   0  0  0  0  0  0  0  0  0  0  0  0
   34.6013   46.4799   37.1692 C   0  0  0  0  0  0  0  0  0  0  0  0
   35.9046   46.3791   36.6713 C   0  0  0  0  0  0  0  0  0  0  0  0
   37.0128   46.4966   37.4601 C   0  0  0  0  0  0  0  0  0  0  0  0
   36.8489   46.7248   38.8095 C   0  0  0  0  0  0  0  0  0  0  0  0
   35.5674   46.8255   39.3089 C   0  0  0  0  0  0  0  0  0  0  0  0
   34.4528   46.7051   38.5018 C   0  0  0  0  0  0  0  0  0  0  0  0
  1  2  1  1
  2  3  1  6
  2  4  1  0
  4  5  2  0
  4  6  1  6
  4  7  1  0
  7  8  1  1
  8  9  1  1
  9 10  2  0
  9 11  1  0
 12 11  1  6
 13 12  1  6
 12 14  1  0
 14 15  1  0
 14 16  2  0
  8 17  1  0
 17 18  1  1
 18 19  2  0
 19 20  1  0
 20 21  2  0
 21 22  1  0
 18 23  1  0
 22 23  2  0
 21 24  1  0
 24 25  2  0
 25 26  1  0
 26 27  2  0
 27 28  1  0
 24 29  1  0
 28 29  2  0
M  END
$$$$
