7SZA_DUI_A_501
     RDKit          3D

 20 22  0  0  0  0  0  0  0  0999 V2000
  -44.4401   -3.2602    5.5682 C   0  0  0  0  0  0  0  0  0  0  0  0
  -45.1506   -2.4100    4.7177 C   0  0  0  0  0  0  0  0  0  0  0  0
  -45.0452   -1.0085    4.8480 C   0  0  0  0  0  0  0  0  0  0  0  0
  -44.2114   -0.5250    5.8467 C   0  0  0  0  0  0  0  0  0  0  0  0
  -43.8598    0.7579    6.2540 C   0  0  0  0  0  0  0  0  0  0  0  0
  -42.4022    1.9288    7.9720 C   0  0  2  0  0  0  0  0  0  0  0  0
  -42.7240    5.9663    8.2875 O   0  0  0  0  0  0  0  0  0  0  0  0
  -41.3071    2.4652    5.9417 O   0  0  0  0  0  0  0  0  0  0  0  0
  -43.0081    0.7832    7.2712 N   0  0  0  0  0  0  0  0  0  0  0  0
  -43.4484    2.5653    8.8674 C   0  0  0  0  0  0  0  0  0  0  0  0
  -42.8553    3.8612    9.3936 C   0  0  0  0  0  0  0  0  0  0  0  0
  -42.1257    4.1923    7.0775 N   0  0  0  0  0  0  0  0  0  0  0  0
  -42.8812   -3.5629    7.3986 N   0  0  0  0  0  0  0  0  0  0  0  0
  -43.6114   -2.7473    6.5655 C   0  0  0  0  0  0  0  0  0  0  0  0
  -44.3250    1.8251    5.7108 O   0  0  0  0  0  0  0  0  0  0  0  0
  -41.9030    2.8883    6.9257 C   0  0  0  0  0  0  0  0  0  0  0  0
  -42.7895   -0.5109    7.5071 C   0  0  0  0  0  0  0  0  0  0  0  0
  -43.4998   -1.3782    6.6854 C   0  0  0  0  0  0  0  0  0  0  0  0
  -42.5596    4.7562    8.2077 C   0  0  0  0  0  0  0  0  0  0  0  0
  -41.9865   -0.8869    8.4186 O   0  0  0  0  0  0  0  0  0  0  0  0
  1  2  2  0
  2  3  1  0
  3  4  2  0
  4  5  1  0
  5  9  1  0
  6  9  1  6
  6 10  1  0
 10 11  1  0
  1 14  1  0
 13 14  1  0
  5 15  2  0
 12 16  1  0
  8 16  2  0
  6 16  1  0
  9 17  1  0
  4 18  1  0
 17 18  1  0
 14 18  2  0
  7 19  2  0
 12 19  1  0
 11 19  1  0
 17 20  2  0
M  END
