1IA1_TQ3_B_196
     RDKit          3D

 19 21  0  0  0  0  0  0  0  0999 V2000
   18.3079   16.6510   11.0619 C   0  0  0  0  0  0  0  0  0  0  0  0
   18.2491   15.7135    9.9957 C   0  0  0  0  0  0  0  0  0  0  0  0
   17.2221   15.8657    9.0172 C   0  0  0  0  0  0  0  0  0  0  0  0
   16.2980   16.7974    9.1147 N   0  0  0  0  0  0  0  0  0  0  0  0
   16.2916   17.6745   10.1452 C   0  0  0  0  0  0  0  0  0  0  0  0
   17.2756   17.6915   11.0867 N   0  0  0  0  0  0  0  0  0  0  0  0
   16.9654   15.1133    7.9309 N   0  0  0  0  0  0  0  0  0  0  0  0
   19.2660   16.6021   12.0602 C   0  0  0  0  0  0  0  0  0  0  0  0
   20.2285   15.5939   12.0159 C   0  0  0  0  0  0  0  0  0  0  0  0
   20.2323   14.6543   10.9605 C   0  0  0  0  0  0  0  0  0  0  0  0
   19.2856   14.6831   10.0238 C   0  0  0  0  0  0  0  0  0  0  0  0
   15.3664   18.6272   10.3017 N   0  0  0  0  0  0  0  0  0  0  0  0
   19.2065   13.3886    8.7784 S   0  0  0  0  0  0  0  0  0  0  0  0
   20.8052   12.6115    8.9143 C   0  0  0  0  0  0  0  0  0  0  0  0
   21.9341   13.3656    8.7318 C   0  0  0  0  0  0  0  0  0  0  0  0
   23.2195   12.7688    8.7931 C   0  0  0  0  0  0  0  0  0  0  0  0
   23.2698   11.3563    8.9532 C   0  0  0  0  0  0  0  0  0  0  0  0
   22.1389   10.5885    9.1395 C   0  0  0  0  0  0  0  0  0  0  0  0
   20.8358   11.1955    9.0820 C   0  0  0  0  0  0  0  0  0  0  0  0
  1  2  1  0
  2  3  2  0
  3  4  1  0
  4  5  2  0
  1  6  2  0
  5  6  1  0
  3  7  1  0
  1  8  1  0
  8  9  2  0
  9 10  1  0
  2 11  1  0
 10 11  2  0
  5 12  1  0
 11 13  1  0
 13 14  1  0
 14 15  2  0
 15 16  1  0
 16 17  2  0
 17 18  1  0
 14 19  1  0
 18 19  2  0
M  END
