7S45_ACO_A_202
     RDKit          3D

 51 53  0  0  0  0  0  0  0  0999 V2000
  -19.1148  -41.4082   38.8945 N   0  0  0  0  0  0  0  0  0  0  0  0
  -20.1646  -42.2600   39.1103 C   0  0  0  0  0  0  0  0  0  0  0  0
  -21.3423  -41.7764   39.5434 N   0  0  0  0  0  0  0  0  0  0  0  0
  -21.5116  -40.4555   39.7714 C   0  0  0  0  0  0  0  0  0  0  0  0
  -20.4724  -39.5567   39.5643 C   0  0  0  0  0  0  0  0  0  0  0  0
  -19.2729  -40.0870   39.1185 C   0  0  0  0  0  0  0  0  0  0  0  0
  -18.2134  -39.1535   38.9085 N   0  0  0  0  0  0  0  0  0  0  0  0
  -20.9376  -38.3386   39.8692 N   0  0  0  0  0  0  0  0  0  0  0  0
  -22.2321  -38.4500   40.2607 C   0  0  0  0  0  0  0  0  0  0  0  0
  -22.5955  -39.7502   40.2038 N   0  0  0  0  0  0  0  0  0  0  0  0
  -23.9160  -40.2597   40.5591 C   0  0  1  0  0  0  0  0  0  0  0  0
  -23.9719  -40.6817   41.9936 C   0  0  2  0  0  0  0  0  0  0  0  0
  -23.5908  -41.9930   42.2243 O   0  0  0  0  0  0  0  0  0  0  0  0
  -25.3565  -40.3579   42.4142 C   0  0  2  0  0  0  0  0  0  0  0  0
  -26.0367  -41.2600   43.1542 O   0  0  0  0  0  0  0  0  0  0  0  0
  -25.9683  -41.1176   44.7985 P   0  0  2  0  0  5  0  0  0  0  0  0
  -26.7260  -39.8216   45.1289 O   0  0  0  0  0  0  0  0  0  0  0  0
  -24.4447  -40.9157   45.4369 O   0  0  0  0  0  0  0  0  0  0  0  0
  -26.8001  -42.3116   45.6580 O   0  0  0  0  0  0  0  0  0  0  0  0
  -25.9733  -39.8638   41.1467 C   0  0  2  0  0  0  0  0  0  0  0  0
  -24.8802  -39.2669   40.4742 O   0  0  0  0  0  0  0  0  0  0  0  0
  -27.0079  -38.7931   41.4152 C   0  0  0  0  0  0  0  0  0  0  0  0
  -26.5380  -37.9445   42.4313 O   0  0  0  0  0  0  0  0  0  0  0  0
  -25.9545  -36.5014   41.7593 P   0  0  2  0  0  5  0  0  0  0  0  0
  -25.7757  -36.5796   40.2737 O   0  0  0  0  0  0  0  0  0  0  0  0
  -24.4330  -36.2383   42.4465 O   0  0  0  0  0  0  0  0  0  0  0  0
  -27.0298  -35.2642   42.1003 O   0  0  0  0  0  0  0  0  0  0  0  0
  -27.8081  -34.6865   40.7146 P   0  0  2  0  0  5  0  0  0  0  0  0
  -28.7671  -33.5822   41.0690 O   0  0  0  0  0  0  0  0  0  0  0  0
  -28.6374  -35.9855   40.0163 O   0  0  0  0  0  0  0  0  0  0  0  0
  -26.6775  -34.0871   39.6018 O   0  0  0  0  0  0  0  0  0  0  0  0
  -26.3651  -32.5803   37.7256 C   0  0  2  0  0  0  0  0  0  0  0  0
  -27.3306  -33.3098   38.6749 C   0  0  0  0  0  0  0  0  0  0  0  0
  -25.5611  -33.6779   37.0727 C   0  0  0  0  0  0  0  0  0  0  0  0
  -25.4850  -31.6416   38.5244 C   0  0  0  0  0  0  0  0  0  0  0  0
  -27.1725  -31.7635   36.7561 C   0  0  1  0  0  0  0  0  0  0  0  0
  -27.8001  -30.7555   37.5105 O   0  0  0  0  0  0  0  0  0  0  0  0
  -26.2340  -31.0096   35.8345 C   0  0  0  0  0  0  0  0  0  0  0  0
  -26.4331  -29.7828   35.7956 O   0  0  0  0  0  0  0  0  0  0  0  0
  -25.2488  -31.6906   35.1126 N   0  0  0  0  0  0  0  0  0  0  0  0
  -23.8585  -31.8329   35.2323 C   0  0  0  0  0  0  0  0  0  0  0  0
  -23.0124  -30.6587   35.0790 C   0  0  0  0  0  0  0  0  0  0  0  0
  -21.5747  -30.6666   35.2019 C   0  0  0  0  0  0  0  0  0  0  0  0
  -20.7788  -31.5459   35.5365 O   0  0  0  0  0  0  0  0  0  0  0  0
  -20.9174  -29.3903   34.8714 N   0  0  0  0  0  0  0  0  0  0  0  0
  -19.5527  -29.5064   34.3828 C   0  0  0  0  0  0  0  0  0  0  0  0
  -19.0622  -30.8773   34.7433 C   0  0  0  0  0  0  0  0  0  0  0  0
  -17.6096  -30.8342   35.8126 S   0  0  0  0  0  0  0  0  0  0  0  0
  -16.1430  -30.3776   34.9141 C   0  0  0  0  0  0  0  0  0  0  0  0
  -15.0544  -30.3667   35.4422 O   0  0  0  0  0  0  0  0  0  0  0  0
  -16.3030  -30.0054   33.4764 C   0  0  0  0  0  0  0  0  0  0  0  0
  1  2  2  0
  2  3  1  0
  3  4  2  0
  4  5  1  0
  1  6  1  0
  5  6  2  0
  6  7  1  0
  5  8  1  0
  8  9  2  0
  4 10  1  0
  9 10  1  0
 11 10  1  1
 11 12  1  0
 12 13  1  6
 12 14  1  0
 14 15  1  6
 15 16  1  0
 16 17  2  0
 16 18  1  1
 16 19  1  0
 14 20  1  0
 11 21  1  0
 20 21  1  6
 20 22  1  0
 22 23  1  1
 24 23  1  0
 24 25  2  0
 24 26  1  1
 24 27  1  0
 28 27  1  0
 28 29  2  0
 28 30  1  6
 28 31  1  0
 33 31  1  6
 32 33  1  0
 32 34  1  6
 35 32  1  6
 32 36  1  0
 36 37  1  1
 36 38  1  0
 38 39  2  0
 38 40  1  0
 41 40  1  6
 41 42  1  0
 42 43  1  6
 43 44  2  0
 43 45  1  0
 46 45  1  1
 46 47  1  0
 47 48  1  6
 48 49  1  0
 49 50  2  0
 51 49  1  1
M  END
$$$$
