
     RDKit          3D

 21 23  0  0  0  0  0  0  0  0999 V2000
   10.4101   -6.7341   31.8694 C   0  0  0  0  0  0  0  0  0  0  0  0
   11.7832   -5.0468   31.2375 C   0  0  0  0  0  0  0  0  0  0  0  0
    7.4163   -3.9031   26.2708 C   0  0  0  0  0  0  0  0  0  0  0  0
    5.6904   -4.2630   28.4551 C   0  0  0  0  0  0  0  0  0  0  0  0
    4.4435   -4.7469   30.2762 C   0  0  0  0  0  0  0  0  0  0  0  0
    5.5681   -5.2561   30.9015 C   0  0  0  0  0  0  0  0  0  0  0  0
    6.7701   -5.2183   30.2091 C   0  0  0  0  0  0  0  0  0  0  0  0
    8.0343   -5.7291   30.7765 C   0  0  0  0  0  0  0  0  0  0  0  0
    9.2428   -5.0120   30.6472 C   0  0  0  0  0  0  0  0  0  0  0  0
   10.4405   -5.5141   31.1980 C   0  0  0  0  0  0  0  0  0  0  0  0
    9.2403   -7.4821   32.0162 C   0  0  0  0  0  0  0  0  0  0  0  0
    8.0659   -6.9589   31.4585 C   0  0  0  0  0  0  0  0  0  0  0  0
   12.5300   -5.9757   31.9253 C   0  0  0  0  0  0  0  0  0  0  0  0
    3.2058   -4.6632   32.3318 C   0  0  0  0  0  0  0  0  0  0  0  0
    4.4811   -4.2468   29.0404 N   0  0  0  0  0  0  0  0  0  0  0  0
    6.8510   -4.7151   28.9612 N   0  0  0  0  0  0  0  0  0  0  0  0
   11.6913   -6.9908   32.3032 N   0  0  0  0  0  0  0  0  0  0  0  0
    3.1866   -4.7627   30.8813 N   0  0  0  0  0  0  0  0  0  0  0  0
    4.8689   -4.3086   25.9541 O   0  0  0  0  0  0  0  0  0  0  0  0
    5.6594   -2.1126   26.9364 O   0  0  0  0  0  0  0  0  0  0  0  0
    5.7660   -3.5588   26.8192 S   0  0  0  0  0  6  0  0  0  0  0  0
  5  6  4  0
  6  7  4  0
  7  8  1  0
  8  9  4  0
  2 10  4  0
  9 10  4  0
  1 10  4  0
  1 11  4  0
  8 12  4  0
 11 12  4  0
  2 13  4  0
  4 15  4  0
  5 15  4  0
  4 16  4  0
  7 16  4  0
 13 17  4  0
  1 17  4  0
  5 18  1  0
 14 18  1  0
  3 21  1  0
 20 21  2  0
 19 21  2  0
  4 21  1  0
M  END
