7L03_F9F_A_301
     RDKit          3D

 22 22  0  0  0  0  0  0  0  0999 V2000
  -39.3414   -6.8225   15.0584 C   0  0  0  0  0  0  0  0  0  0  0  0
  -38.8408   -5.6498   15.5778 C   0  0  0  0  0  0  0  0  0  0  0  0
  -39.6515   -4.5761   15.8040 C   0  0  0  0  0  0  0  0  0  0  0  0
  -40.9958   -4.6712   15.5057 C   0  0  0  0  0  0  0  0  0  0  0  0
  -41.5487   -5.8395   14.9776 C   0  0  0  0  0  0  0  0  0  0  0  0
  -40.6940   -6.9222   14.7568 C   0  0  0  0  0  0  0  0  0  0  0  0
  -38.4993   -7.9150   14.8315 O   0  0  0  0  0  0  0  0  0  0  0  0
  -39.0631   -9.1951   14.6127 C   0  0  1  0  0  0  0  0  0  0  0  0
  -39.7471   -9.1723   13.4298 F   0  0  0  0  0  0  0  0  0  0  0  0
  -38.1446  -10.2014   14.6048 F   0  0  0  0  0  0  0  0  0  0  0  0
  -39.9510   -9.4655   15.6459 F   0  0  0  0  0  0  0  0  0  0  0  0
  -42.0853   -3.3383   15.7704 S   0  0  2  0  0  6  0  0  0  0  0  0
  -42.4262   -2.5814   14.2901 N   0  0  0  0  0  0  0  0  0  0  0  0
  -41.3217   -1.9449   13.6474 C   0  0  0  0  0  0  0  0  0  0  0  0
  -41.8341   -1.4718   12.2831 C   0  0  0  0  0  0  0  0  0  0  0  0
  -40.8638   -0.6889   11.6577 O   0  0  0  0  0  0  0  0  0  0  0  0
  -41.2757   -0.5304   10.0306 P   0  0  1  0  0  5  0  0  0  0  0  0
  -41.1049   -2.0697    9.3159 O   0  0  0  0  0  0  0  0  0  0  0  0
  -42.6880   -0.0360    9.9070 O   0  0  0  0  0  0  0  0  0  0  0  0
  -40.2315    0.5364    9.2780 O   0  0  0  0  0  0  0  0  0  0  0  0
  -41.4224   -2.3654   16.7116 O   0  0  0  0  0  0  0  0  0  0  0  0
  -43.3672   -3.8140   16.3694 O   0  0  0  0  0  0  0  0  0  0  0  0
  1  2  2  0
  2  3  1  0
  3  4  2  0
  4  5  1  0
  1  6  1  0
  5  6  2  0
  1  7  1  0
  7  8  1  0
  8  9  1  6
  8 10  1  0
  8 11  1  0
  4 12  1  0
 12 13  1  6
 14 13  1  6
 14 15  1  0
 15 16  1  1
 16 17  1  0
 17 18  1  6
 17 19  2  0
 17 20  1  0
 12 21  2  0
 12 22  2  0
M  END
$$$$
