6T88_MWQ_A_608
     RDKit          3D

 10 10  0  0  0  0  0  0  0  0999 V2000
   -9.8155  -52.1270  -10.4685 O   0  0  0  0  0  0  0  0  0  0  0  0
  -10.6309  -53.0364  -10.1912 C   0  0  0  0  0  0  0  0  0  0  0  0
  -10.7720  -54.0347  -11.1756 O   0  0  0  0  0  0  0  0  0  0  0  0
  -11.4328  -53.1687   -8.9844 C   0  0  0  0  0  0  0  0  0  0  0  0
  -11.2367  -52.1970   -7.9023 C   0  0  0  0  0  0  0  0  0  0  0  0
  -12.0475  -52.2833   -6.6989 C   0  0  0  0  0  0  0  0  0  0  0  0
  -12.4721  -51.1152   -6.0234 C   0  0  0  0  0  0  0  0  0  0  0  0
  -13.1764  -51.4947   -4.9740 N   0  0  0  0  0  0  0  0  0  0  0  0
  -13.2460  -52.8153   -4.9092 C   0  0  0  0  0  0  0  0  0  0  0  0
  -12.5479  -53.2730   -5.9753 N   0  0  0  0  0  0  0  0  0  0  0  0
  1  2  2  0
  2  3  1  0
  4  2  1  6
  4  5  1  0
  5  6  1  1
  6  7  2  0
  7  8  1  0
  8  9  2  0
  9 10  1  0
  6 10  1  0
M  END
$$$$
