7XFA_D9J_A_301
     RDKit          3D

 41 45  0  0  0  0  0  0  0  0999 V2000
   -9.3855  -14.0724   -0.0847 F   0  0  0  0  0  0  0  0  0  0  0  0
  -10.4067  -13.3412   -0.7069 C   0  0  1  0  0  0  0  0  0  0  0  0
  -10.4236  -13.7435   -2.0428 F   0  0  0  0  0  0  0  0  0  0  0  0
  -11.6082  -13.6060   -0.0919 F   0  0  0  0  0  0  0  0  0  0  0  0
  -10.0719  -11.9073   -0.7126 C   0  0  0  0  0  0  0  0  0  0  0  0
   -9.6139  -11.3230   -1.8863 C   0  0  0  0  0  0  0  0  0  0  0  0
   -9.2833   -9.9885   -1.9767 C   0  0  0  0  0  0  0  0  0  0  0  0
   -9.4221   -9.2224   -0.8392 C   0  0  0  0  0  0  0  0  0  0  0  0
   -9.0120   -7.5220   -0.9144 Cl  0  0  0  0  0  0  0  0  0  0  0  0
   -9.8809   -9.8049    0.3394 C   0  0  0  0  0  0  0  0  0  0  0  0
  -10.2100  -11.1432    0.4217 C   0  0  0  0  0  0  0  0  0  0  0  0
  -10.6742  -11.6882    1.6630 N   0  0  0  0  0  0  0  0  0  0  0  0
  -10.1905  -12.7387    2.2652 N   0  0  0  0  0  0  0  0  0  0  0  0
  -10.8887  -12.9261    3.3907 C   0  0  0  0  0  0  0  0  0  0  0  0
  -10.6087  -14.0451    4.3373 C   0  0  0  0  0  0  0  0  0  0  0  0
  -11.8304  -11.9770    3.5016 N   0  0  0  0  0  0  0  0  0  0  0  0
  -11.6859  -11.1912    2.3940 C   0  0  0  0  0  0  0  0  0  0  0  0
  -12.5332  -10.0211    2.1202 C   0  0  1  0  0  0  0  0  0  0  0  0
  -14.0078  -10.3186    2.3731 C   0  0  2  0  0  0  0  0  0  0  0  0
  -14.3980  -11.3445    1.5042 O   0  0  0  0  0  0  0  0  0  0  0  0
  -12.1021   -8.8325    2.6199 O   0  0  0  0  0  0  0  0  0  0  0  0
  -12.9276   -8.0985    3.4059 C   0  0  2  0  0  0  0  0  0  0  0  0
  -12.7501   -8.3848    4.9004 C   0  0  0  0  0  0  0  0  0  0  0  0
  -11.7010   -7.6291    5.4230 O   0  0  0  0  0  0  0  0  0  0  0  0
  -14.3714   -8.0350    3.0257 C   0  0  2  0  0  0  0  0  0  0  0  0
  -15.1266   -8.3876    4.1686 O   0  0  0  0  0  0  0  0  0  0  0  0
  -14.7036   -9.0335    1.9738 C   0  0  2  0  0  0  0  0  0  0  0  0
  -16.1233   -9.2160    1.7814 N   0  0  0  0  0  0  0  0  0  0  0  0
  -16.9382   -8.2246    1.3755 C   0  0  0  0  0  0  0  0  0  0  0  0
  -16.8872  -10.2729    1.9364 N   0  0  0  0  0  0  0  0  0  0  0  0
  -18.1651   -9.9891    1.6425 N   0  0  0  0  0  0  0  0  0  0  0  0
  -18.2291   -8.7089    1.2864 C   0  0  0  0  0  0  0  0  0  0  0  0
  -19.3928   -7.9059    0.8718 C   0  0  0  0  0  0  0  0  0  0  0  0
  -19.2224   -6.6808    0.2209 C   0  0  0  0  0  0  0  0  0  0  0  0
  -20.3749   -6.0092   -0.1242 C   0  0  0  0  0  0  0  0  0  0  0  0
  -20.1906   -4.8062   -0.7635 F   0  0  0  0  0  0  0  0  0  0  0  0
  -21.6418   -6.4920    0.1436 C   0  0  0  0  0  0  0  0  0  0  0  0
  -23.0034   -5.5068   -0.3657 Cl  0  0  0  0  0  0  0  0  0  0  0  0
  -21.8108   -7.7000    0.7855 C   0  0  0  0  0  0  0  0  0  0  0  0
  -23.0411   -8.1666    1.0444 F   0  0  0  0  0  0  0  0  0  0  0  0
  -20.6532   -8.3960    1.1434 C   0  0  0  0  0  0  0  0  0  0  0  0
  2  1  1  1
  2  3  1  0
  2  4  1  0
  2  5  1  0
  5  6  2  0
  6  7  1  0
  7  8  2  0
  8  9  1  0
  8 10  1  0
 10 11  2  0
  5 11  1  0
 11 12  1  0
 12 13  1  0
 13 14  2  0
 14 15  1  0
 14 16  1  0
 16 17  2  0
 12 17  1  0
 18 17  1  1
 18 19  1  0
 19 20  1  6
 18 21  1  0
 21 22  1  0
 22 23  1  1
 23 24  1  0
 22 25  1  0
 25 26  1  1
 25 27  1  0
 19 27  1  0
 27 28  1  1
 28 29  1  0
 28 30  1  0
 30 31  2  0
 29 32  2  0
 31 32  1  0
 32 33  1  0
 33 34  2  0
 34 35  1  0
 35 36  1  0
 35 37  2  0
 37 38  1  0
 37 39  1  0
 39 40  1  0
 39 41  2  0
 33 41  1  0
M  END
$$$$
