7Q19_DSM_AAA_201
     RDKit          3D

 20 22  0  0  0  0  0  0  0  0999 V2000
    1.8448   51.0735   18.2326 C   0  0  0  0  0  0  0  0  0  0  0  0
    1.4626   49.8526   17.5715 N   0  0  0  0  0  0  0  0  0  0  0  0
    0.3365   49.9799   16.6817 C   0  0  0  0  0  0  0  0  0  0  0  0
   -0.4296   48.6881   16.4935 C   0  0  0  0  0  0  0  0  0  0  0  0
   -1.4911   48.8333   15.3891 C   0  0  0  0  0  0  0  0  0  0  0  0
   -2.5887   47.9390   15.5444 N   0  0  0  0  0  0  0  0  0  0  0  0
   -3.7998   48.4611   16.1231 C   0  0  0  0  0  0  0  0  0  0  0  0
   -3.5159   49.3998   17.0914 C   0  0  0  0  0  0  0  0  0  0  0  0
   -4.5182   50.0145   17.7621 C   0  0  0  0  0  0  0  0  0  0  0  0
   -5.8268   49.6664   17.4411 C   0  0  0  0  0  0  0  0  0  0  0  0
   -6.1089   48.7201   16.4652 C   0  0  0  0  0  0  0  0  0  0  0  0
   -5.0813   48.0777   15.7642 C   0  0  0  0  0  0  0  0  0  0  0  0
   -5.5650   47.1144   14.7589 C   0  0  0  0  0  0  0  0  0  0  0  0
   -4.9294   45.7793   14.7659 C   0  0  0  0  0  0  0  0  0  0  0  0
   -3.4745   45.7024   14.7879 C   0  0  0  0  0  0  0  0  0  0  0  0
   -2.4489   46.5588   15.1190 C   0  0  0  0  0  0  0  0  0  0  0  0
   -3.0798   44.4178   14.3895 C   0  0  0  0  0  0  0  0  0  0  0  0
   -1.7457   44.0558   14.3402 C   0  0  0  0  0  0  0  0  0  0  0  0
   -0.7651   44.9623   14.6867 C   0  0  0  0  0  0  0  0  0  0  0  0
   -1.1143   46.2199   15.0791 C   0  0  0  0  0  0  0  0  0  0  0  0
  1  2  1  0
  2  3  1  0
  3  4  1  0
  4  5  1  0
  5  6  1  0
  6  7  1  0
  7  8  2  0
  8  9  1  0
  9 10  2  0
 10 11  1  0
  7 12  1  0
 11 12  2  0
 12 13  1  0
 13 14  1  0
 14 15  1  0
  6 16  1  0
 15 16  2  0
 15 17  1  0
 17 18  2  0
 18 19  1  0
 16 20  1  0
 19 20  2  0
M  END
$$$$
