7ES1_UDP_A_501
     RDKit          3D

 39 40  0  0  0  0  0  0  0  0999 V2000
    0.9578    0.5851    1.7366 N   0  0  0  0  0  4  0  0  0  0  0  0
    1.8374    1.6102    1.4863 C   0  0  0  0  0  0  0  0  0  0  0  0
    1.5021    2.8945    1.7928 N   0  0  0  0  0  4  0  0  0  0  0  0
    0.3051    3.1910    2.3626 C   0  0  0  0  0  0  0  0  0  0  0  0
   -0.5972    2.1718    2.6450 C   0  0  0  0  0  0  0  0  0  0  0  0
   -0.2452    0.8629    2.3288 C   0  0  0  0  0  0  0  0  0  0  0  0
    2.9649    1.3775    0.9706 O   0  0  0  0  0  0  0  0  0  0  0  0
    0.0133    4.3853    2.6382 O   0  0  0  0  0  0  0  0  0  0  0  0
    1.3247   -0.8155    1.4394 C   0  0  1  0  0  0  0  0  0  0  0  0
    0.1132   -1.7339    1.5724 C   0  0  2  0  0  0  0  0  0  0  0  0
   -0.1035   -2.1935    2.8868 O   0  0  0  0  0  0  0  0  0  0  0  0
    0.4218   -2.8380    0.5916 C   0  0  1  0  0  0  0  0  0  0  0  0
    1.2977   -2.1176   -0.4439 C   0  0  2  0  0  0  0  0  0  0  0  0
    1.8286   -0.9348    0.1255 O   0  0  0  0  0  0  0  0  0  0  0  0
    1.1520   -3.8679    1.2091 O   0  0  0  0  0  0  0  0  0  0  0  0
    0.4981   -1.7573   -1.7016 C   0  0  0  0  0  0  0  0  0  0  0  0
   -0.1169   -0.5042   -1.5149 O   0  0  0  0  0  0  0  0  0  0  0  0
   -0.1628   -0.1748    0.1566 P   0  0  2  0  0  5  0  0  0  0  0  0
   -0.0816   -1.4884    0.9017 O   0  0  0  0  0  0  0  0  0  0  0  0
   -1.6286    0.5897    0.5297 O   0  0  0  0  0  0  0  0  0  0  0  0
    1.1688    0.8027    0.5742 O   0  0  0  0  0  0  0  0  0  0  0  0
    0.7375    1.7040    1.9516 P   0  0  2  0  0  5  0  0  0  0  0  0
    1.3207    1.0282    3.1718 O   0  0  0  0  0  0  0  0  0  0  0  0
   -0.9462    1.7844    2.1218 O   0  0  0  0  0  0  0  0  0  0  0  0
    1.3729    3.2693    1.8427 O   0  0  0  0  0  0  0  0  0  0  0  0
    2.1790    3.6655    1.5913 H   0  0  0  0  0  0  0  0  0  0  0  0
   -1.5513    2.3850    3.1100 H   0  0  0  0  0  0  0  0  0  0  0  0
   -0.9440    0.0711    2.5654 H   0  0  0  0  0  0  0  0  0  0  0  0
    2.1398   -1.1533    2.1186 H   0  0  0  0  0  0  0  0  0  0  0  0
   -0.8018   -1.2008    1.2285 H   0  0  0  0  0  0  0  0  0  0  0  0
    0.7537   -2.5356    3.2507 H   0  0  0  0  0  0  0  0  0  0  0  0
   -0.5230   -3.2458    0.1600 H   0  0  0  0  0  0  0  0  0  0  0  0
    2.1429   -2.7728   -0.7514 H   0  0  0  0  0  0  0  0  0  0  0  0
    1.1468   -4.6345    0.5782 H   0  0  0  0  0  0  0  0  0  0  0  0
    1.2001   -1.7136   -2.5650 H   0  0  0  0  0  0  0  0  0  0  0  0
   -0.2584   -2.5560   -1.8791 H   0  0  0  0  0  0  0  0  0  0  0  0
   -2.3257   -0.0006    0.1470 H   0  0  0  0  0  0  0  0  0  0  0  0
   -1.2342    0.8434    2.2302 H   0  0  0  0  0  0  0  0  0  0  0  0
    0.9837    3.7543    2.6131 H   0  0  0  0  0  0  0  0  0  0  0  0
  1  2  4  0
  2  3  4  0
  3  4  4  0
  4  5  4  0
  1  6  4  0
  5  6  4  0
  2  7  2  0
  4  8  2  0
  9  1  1  0
  9 10  1  0
 10 11  1  0
 10 12  1  0
 12 13  1  0
  9 14  1  0
 13 14  1  0
 12 15  1  0
 13 16  1  0
 16 17  1  0
 18 17  1  6
 18 19  2  0
 18 20  1  0
 18 21  1  0
 22 21  1  6
 22 23  2  0
 22 24  1  0
 22 25  1  0
  3 26  1  0
  5 27  1  0
  6 28  1  0
  9 29  1  1
 10 30  1  6
 11 31  1  0
 12 32  1  6
 13 33  1  6
 15 34  1  0
 16 35  1  0
 16 36  1  0
 20 37  1  0
 24 38  1  0
 25 39  1  0
M  CHG  2   1   1   3   1
M  END
