@<TRIPOS>MOLECULE
1OQ5_CEL_A_701
 40 42 0 0 0
SMALL
GASTEIGER

@<TRIPOS>ATOM
      1 S          15.2890    2.8460   16.6520 S.O2    1  UNL1        0.0559
      2 C          15.9880    4.1960   15.7120 C.ar    1  UNL1        0.1051
      3 C          15.1860    5.2150   15.2560 C.ar    1  UNL1       -0.0334
      4 C          15.7540    6.3000   14.6040 C.ar    1  UNL1       -0.0344
      5 C          17.1130    6.3320   14.4410 C.ar    1  UNL1        0.0661
      6 C          17.9260    5.3110   14.8920 C.ar    1  UNL1       -0.0344
      7 C          17.3580    4.2110   15.5450 C.ar    1  UNL1       -0.0334
      8 N          17.6970    7.5280   13.8490 N.ar    1  UNL1       -0.2316
      9 C          17.5200    8.1910   12.6670 C.ar    1  UNL1        0.0752
     10 C          16.7620    7.8190   11.4780 C.ar    1  UNL1        0.0005
     11 C          16.8180    6.4970   11.0640 C.ar    1  UNL1       -0.0523
     12 C          16.1520    6.0970    9.9300 C.ar    1  UNL1       -0.0582
     13 C          15.3810    6.9930    9.2250 C.ar    1  UNL1       -0.0504
     14 C          14.6630    6.5370    7.9810 C.3     1  UNL1       -0.0397
     15 C          15.2560    8.3000    9.6820 C.ar    1  UNL1       -0.0582
     16 C          15.9710    8.7060   10.7780 C.ar    1  UNL1       -0.0523
     17 C          18.3570    9.3030   12.7050 C.ar    1  UNL1       -0.0039
     18 C          18.9230    9.2700   13.9750 C.ar    1  UNL1        0.1662
     19 C          19.8490   10.2670   14.5820 C.3     1  UNL1        0.4360
     20 F          21.0600   10.2580   14.0890 F       1  UNL1       -0.1644
     21 F          19.9160   10.2130   15.9080 F       1  UNL1       -0.1644
     22 F          19.3800   11.4890   14.3610 F       1  UNL1       -0.1644
     23 N          18.5310    8.2110   14.6570 N.ar    1  UNL1       -0.1618
     24 N          15.8130    1.4840   16.0220 N.3     1  UNL1       -0.2035
     25 O          13.8900    2.9120   16.5270 O.2     1  UNL1       -0.1533
     26 O          15.8140    3.0120   17.9850 O.2     1  UNL1       -0.1533
     27 H          14.1647    5.1731   15.3982 H       1  UNL1        0.0638
     28 H          15.1635    7.0682   14.2487 H       1  UNL1        0.0639
     29 H          18.9468    5.3587   14.7484 H       1  UNL1        0.0639
     30 H          17.9450    3.4357   15.8906 H       1  UNL1        0.0638
     31 H          17.3620    5.8104   11.6095 H       1  UNL1        0.0624
     32 H          16.2305    5.1204    9.6058 H       1  UNL1        0.0620
     33 H          14.8860    5.5066    7.7979 H       1  UNL1        0.0278
     34 H          14.9852    7.1252    7.1473 H       1  UNL1        0.0278
     35 H          13.6080    6.6554    8.1145 H       1  UNL1        0.0278
     36 H          14.6280    8.9609    9.1983 H       1  UNL1        0.0620
     37 H          15.9169    9.6900   11.0843 H       1  UNL1        0.0624
     38 H          18.5207    9.9963   11.9583 H       1  UNL1        0.0660
     39 H          15.4356    1.3776   15.0804 H       1  UNL1        0.1442
     40 H          15.5076    0.7018   16.6011 H       1  UNL1        0.1442
@<TRIPOS>BOND
     1     1     2    1
     2     2     3   ar
     3     3     4   ar
     4     4     5   ar
     5     5     6   ar
     6     2     7   ar
     7     6     7   ar
     8     5     8    1
     9     8     9   ar
    10     9    10    1
    11    10    11   ar
    12    11    12   ar
    13    12    13   ar
    14    13    14    1
    15    13    15   ar
    16    10    16   ar
    17    15    16   ar
    18     9    17   ar
    19    17    18   ar
    20    18    19    1
    21    19    20    1
    22    19    21    1
    23    19    22    1
    24     8    23   ar
    25    18    23   ar
    26     1    24    1
    27     1    25    2
    28     1    26    2
    29     3    27    1
    30     4    28    1
    31     6    29    1
    32     7    30    1
    33    11    31    1
    34    12    32    1
    35    14    33    1
    36    14    34    1
    37    14    35    1
    38    15    36    1
    39    16    37    1
    40    17    38    1
    41    24    39    1
    42    24    40    1
