@<TRIPOS>MOLECULE
1OQ5_CEL_A_701
 40 42 0 0 0
SMALL
GASTEIGER

@<TRIPOS>ATOM
      1 S          -2.7993    1.7347    3.7120 S.O2    1  UNL1        0.0559
      2 C          -1.5708    0.9194    2.7505 C.ar    1  UNL1        0.1051
      3 C          -0.2260    1.2963    2.8616 C.ar    1  UNL1       -0.0334
      4 C           0.7525    0.6430    2.1067 C.ar    1  UNL1       -0.0344
      5 C           0.3971   -0.3888    1.2250 C.ar    1  UNL1        0.0661
      6 C          -0.9485   -0.7849    1.1397 C.ar    1  UNL1       -0.0344
      7 C          -1.9263   -0.1309    1.8942 C.ar    1  UNL1       -0.0334
      8 N           1.4141   -1.0617    0.4637 N.ar    1  UNL1       -0.2316
      9 C           1.3540   -1.4836   -0.8235 C.ar    1  UNL1        0.0752
     10 C           0.2804   -1.1844   -1.7974 C.ar    1  UNL1        0.0005
     11 C          -0.1457   -2.1720   -2.6997 C.ar    1  UNL1       -0.0523
     12 C          -1.1527   -1.8941   -3.6287 C.ar    1  UNL1       -0.0582
     13 C          -1.7489   -0.6251   -3.6678 C.ar    1  UNL1       -0.0504
     14 C          -2.8022   -0.3159   -4.6899 C.3     1  UNL1       -0.0397
     15 C          -1.2990    0.3740   -2.7923 C.ar    1  UNL1       -0.0582
     16 C          -0.2917    0.0968   -1.8639 C.ar    1  UNL1       -0.0523
     17 C           2.5146   -2.1742   -1.1160 C.ar    1  UNL1       -0.0039
     18 C           3.2560   -2.1062    0.0481 C.ar    1  UNL1        0.1662
     19 C           4.5878   -2.7467    0.2759 C.3     1  UNL1        0.4360
     20 F           5.2116   -2.1688    1.3667 F       1  UNL1       -0.1644
     21 F           4.4130   -4.0967    0.5150 F       1  UNL1       -0.1644
     22 F           5.3878   -2.5805   -0.8399 F       1  UNL1       -0.1644
     23 N           2.5663   -1.4413    0.9953 N.ar    1  UNL1       -0.1618
     24 N          -2.9410    0.9519    5.2465 N.3     1  UNL1       -0.2035
     25 O          -4.1215    1.6831    2.9989 O.2     1  UNL1       -0.1533
     26 O          -2.4152    3.1744    3.9117 O.2     1  UNL1       -0.1533
     27 H           0.0659    2.0934    3.5334 H       1  UNL1        0.0638
     28 H           1.7872    0.9483    2.1992 H       1  UNL1        0.0639
     29 H          -1.2391   -1.6078    0.4995 H       1  UNL1        0.0639
     30 H          -2.9579   -0.4494    1.8157 H       1  UNL1        0.0638
     31 H           0.2933   -3.1619   -2.6778 H       1  UNL1        0.0624
     32 H          -1.4682   -2.6692   -4.3163 H       1  UNL1        0.0620
     33 H          -3.3932   -1.2252   -4.9307 H       1  UNL1        0.0278
     34 H          -3.5027    0.4575   -4.3087 H       1  UNL1        0.0278
     35 H          -2.3189    0.0580   -5.6165 H       1  UNL1        0.0278
     36 H          -1.7246    1.3692   -2.8313 H       1  UNL1        0.0620
     37 H           0.0509    0.8881   -1.2092 H       1  UNL1        0.0624
     38 H           2.7955   -2.6366   -2.0535 H       1  UNL1        0.0660
     39 H          -3.6296    1.5015    5.8077 H       1  UNL1        0.1442
     40 H          -2.0171    1.0481    5.7245 H       1  UNL1        0.1442
@<TRIPOS>BOND
     1     1     2    1
     2     2     3   ar
     3     3     4   ar
     4     4     5   ar
     5     5     6   ar
     6     2     7   ar
     7     6     7   ar
     8     5     8    1
     9     8     9   ar
    10     9    10    1
    11    10    11   ar
    12    11    12   ar
    13    12    13   ar
    14    13    14    1
    15    13    15   ar
    16    10    16   ar
    17    15    16   ar
    18     9    17   ar
    19    17    18   ar
    20    18    19    1
    21    19    20    1
    22    19    21    1
    23    19    22    1
    24     8    23   ar
    25    18    23   ar
    26     1    24    1
    27     1    25    2
    28     1    26    2
    29     3    27    1
    30     4    28    1
    31     6    29    1
    32     7    30    1
    33    11    31    1
    34    12    32    1
    35    14    33    1
    36    14    34    1
    37    14    35    1
    38    15    36    1
    39    16    37    1
    40    17    38    1
    41    24    39    1
    42    24    40    1
