1OQ5_CEL_A_701
     RDKit          3D

 26 28  0  0  0  0  0  0  0  0999 V2000
   15.2890    2.8460   16.6520 S   0  0  0  0  0  0  0  0  0  0  0  0
   15.9880    4.1960   15.7120 C   0  0  0  0  0  0  0  0  0  0  0  0
   15.1860    5.2150   15.2560 C   0  0  0  0  0  0  0  0  0  0  0  0
   15.7540    6.3000   14.6040 C   0  0  0  0  0  0  0  0  0  0  0  0
   17.1130    6.3320   14.4410 C   0  0  0  0  0  0  0  0  0  0  0  0
   17.9260    5.3110   14.8920 C   0  0  0  0  0  0  0  0  0  0  0  0
   17.3580    4.2110   15.5450 C   0  0  0  0  0  0  0  0  0  0  0  0
   17.6970    7.5280   13.8490 N   0  0  0  0  0  0  0  0  0  0  0  0
   17.5200    8.1910   12.6670 C   0  0  0  0  0  0  0  0  0  0  0  0
   16.7620    7.8190   11.4780 C   0  0  0  0  0  0  0  0  0  0  0  0
   16.8180    6.4970   11.0640 C   0  0  0  0  0  0  0  0  0  0  0  0
   16.1520    6.0970    9.9300 C   0  0  0  0  0  0  0  0  0  0  0  0
   15.3810    6.9930    9.2250 C   0  0  0  0  0  0  0  0  0  0  0  0
   14.6630    6.5370    7.9810 C   0  0  0  0  0  0  0  0  0  0  0  0
   15.2560    8.3000    9.6820 C   0  0  0  0  0  0  0  0  0  0  0  0
   15.9710    8.7060   10.7780 C   0  0  0  0  0  0  0  0  0  0  0  0
   18.3570    9.3030   12.7050 C   0  0  0  0  0  0  0  0  0  0  0  0
   18.9230    9.2700   13.9750 C   0  0  0  0  0  0  0  0  0  0  0  0
   19.8490   10.2670   14.5820 C   0  0  0  0  0  0  0  0  0  0  0  0
   21.0600   10.2580   14.0890 F   0  0  0  0  0  0  0  0  0  0  0  0
   19.9160   10.2130   15.9080 F   0  0  0  0  0  0  0  0  0  0  0  0
   19.3800   11.4890   14.3610 F   0  0  0  0  0  0  0  0  0  0  0  0
   18.5310    8.2110   14.6570 N   0  0  0  0  0  0  0  0  0  0  0  0
   15.8130    1.4840   16.0220 N   0  0  0  0  0  0  0  0  0  0  0  0
   13.8900    2.9120   16.5270 O   0  0  0  0  0  0  0  0  0  0  0  0
   15.8140    3.0120   17.9850 O   0  0  0  0  0  0  0  0  0  0  0  0
  1  2  1  0
  2  3  2  0
  3  4  1  0
  4  5  2  0
  5  6  1  0
  2  7  1  0
  6  7  2  0
  5  8  1  0
  8  9  1  0
  9 10  1  0
 10 11  2  0
 11 12  1  0
 12 13  2  0
 13 14  1  0
 13 15  1  0
 10 16  1  0
 15 16  2  0
  9 17  2  0
 17 18  1  0
 18 19  1  0
 19 20  1  0
 19 21  1  0
 19 22  1  0
  8 23  1  0
 18 23  2  0
  1 24  1  0
  1 25  2  0
  1 26  2  0
M  END
$$$$
