7B2C_TP7_A_1204
     RDKit          3D

 21 20  0  0  0  0  0  0  0  0999 V2000
  -11.7199   33.4584   46.8943 N   0  0  0  0  0  0  0  0  0  0  0  0
  -10.2971   37.5308   47.0083 P   0  0  2  0  0  5  0  0  0  0  0  0
  -11.3727   38.5667   46.7692 O   0  0  0  0  0  0  0  0  0  0  0  0
   -9.6567   37.8092   48.5384 O   0  0  0  0  0  0  0  0  0  0  0  0
   -9.1059   37.7871   45.8089 O   0  0  0  0  0  0  0  0  0  0  0  0
  -11.0074   36.0174   46.8390 O   0  0  0  0  0  0  0  0  0  0  0  0
  -11.9401   35.7110   47.8119 C   0  0  1  0  0  0  0  0  0  0  0  0
  -13.5419   34.8592   46.2082 C   0  0  0  0  0  0  0  0  0  0  0  0
  -14.7457   35.4996   46.3995 O   0  0  0  0  0  0  0  0  0  0  0  0
  -13.1629   34.6044   45.0352 O   0  0  0  0  0  0  0  0  0  0  0  0
  -12.6766   34.4613   47.3746 C   0  0  1  0  0  0  0  0  0  0  0  0
  -11.3278   35.4378   49.1592 C   0  0  0  0  0  0  0  0  0  0  0  0
  -12.6090   31.9204   48.3272 O   0  0  0  0  0  0  0  0  0  0  0  0
  -11.7402   32.1591   47.4534 C   0  0  0  0  0  0  0  0  0  0  0  0
  -10.7435   31.1818   46.9717 C   0  0  0  0  0  0  0  0  0  0  0  0
  -10.8575   29.8452   47.6707 C   0  0  0  0  0  0  0  0  0  0  0  0
   -9.5734   29.0868   47.7170 C   0  0  0  0  0  0  0  0  0  0  0  0
   -9.7079   27.7595   48.4214 C   0  0  0  0  0  0  0  0  0  0  0  0
   -8.3848   27.0787   48.6138 C   0  0  0  0  0  0  0  0  0  0  0  0
   -8.5593   25.8119   49.4621 C   0  0  0  0  0  0  0  0  0  0  0  0
   -6.8790   25.2044   49.8450 S   0  0  0  0  0  0  0  0  0  0  0  0
  2  3  2  0
  2  4  1  1
  2  5  1  0
  2  6  1  0
  7  6  1  6
  8  9  1  0
  8 10  2  0
 11  1  1  6
  7 11  1  0
  8 11  1  0
 12  7  1  1
  1 14  1  0
 13 14  2  0
 15 14  1  1
 16 15  1  1
 17 16  1  6
 18 17  1  1
 18 19  1  0
 19 20  1  6
 20 21  1  6
M  END
$$$$
