7NR8_UOE_A_408
     RDKit          3D

 45 50  0  0  0  0  0  0  0  0999 V2000
    1.4871    8.9040   44.1387 C   0  0  0  0  0  0  0  0  0  0  0  0
    2.2607    8.2927   45.3125 C   0  0  2  0  0  0  0  0  0  0  0  0
    5.8138    9.3976   45.0414 C   0  0  0  0  0  0  0  0  0  0  0  0
    6.9267   10.2066   45.0195 C   0  0  0  0  0  0  0  0  0  0  0  0
    8.2044    9.6949   44.7969 C   0  0  0  0  0  0  0  0  0  0  0  0
    8.3556    8.3279   44.5915 C   0  0  0  0  0  0  0  0  0  0  0  0
    5.9745    8.0455   44.8369 C   0  0  0  0  0  0  0  0  0  0  0  0
    4.6322    7.4626   44.9169 C   0  0  0  0  0  0  0  0  0  0  0  0
    9.7079    7.8338   44.3623 C   0  0  0  0  0  0  0  0  0  0  0  0
   11.7922    8.1050   43.2520 C   0  0  0  0  0  0  0  0  0  0  0  0
   11.1480   11.3465   39.9873 C   0  0  0  0  0  0  0  0  0  0  0  0
   13.3891   10.8158   39.9144 C   0  0  0  0  0  0  0  0  0  0  0  0
   13.2348   10.9716   41.4142 C   0  0  0  0  0  0  0  0  0  0  0  0
   11.5085    6.2991   44.6991 C   0  0  0  0  0  0  0  0  0  0  0  0
   10.2156    6.7045   44.9676 C   0  0  0  0  0  0  0  0  0  0  0  0
    1.7033    8.9148   46.5279 C   0  0  0  0  0  0  0  0  0  0  0  0
   -0.3279    7.9829   49.4118 C   0  0  0  0  0  0  0  0  0  0  0  0
   -3.3069    8.5158   46.3289 C   0  0  0  0  0  0  0  0  0  0  0  0
   -3.7313    9.8374   46.3939 C   0  0  0  0  0  0  0  0  0  0  0  0
   -3.0072   10.8069   47.0171 C   0  0  0  0  0  0  0  0  0  0  0  0
   -2.5933   13.1629   47.8331 C   0  0  0  0  0  0  0  0  0  0  0  0
   -2.6205   15.1959   44.7532 C   0  0  0  0  0  0  0  0  0  0  0  0
    3.6770    8.4898   45.1714 N   0  0  0  0  0  0  0  0  0  0  0  0
    4.3965    9.7474   45.2587 C   0  0  0  0  0  0  0  0  0  0  0  0
    7.2440    7.5107   44.6121 C   0  0  0  0  0  0  0  0  0  0  0  0
    4.4135    6.2144   44.7718 O   0  0  0  0  0  0  0  0  0  0  0  0
   10.5421    8.4957   43.5125 N   0  0  0  0  0  0  0  0  0  0  0  0
   12.5961    8.8756   42.3358 N   0  0  0  0  0  0  0  0  0  0  0  0
   12.0716   10.1609   41.9103 C   0  0  2  0  0  0  0  0  0  0  0  0
   11.0973   10.0241   40.7519 C   0  0  0  0  0  0  0  0  0  0  0  0
   12.3437   11.4842   39.2728 O   0  0  0  0  0  0  0  0  0  0  0  0
   12.2667    7.0120   43.8452 N   0  0  0  0  0  0  0  0  0  0  0  0
    9.2082    5.7968   46.0733 Cl  0  0  0  0  0  0  0  0  0  0  0  0
    2.0719   10.0910   46.8302 O   0  0  0  0  0  0  0  0  0  0  0  0
    0.7814    8.1691   47.3016 N   0  0  0  0  0  0  0  0  0  0  0  0
   -0.0997    8.8920   48.1969 C   0  0  1  0  0  0  0  0  0  0  0  0
    0.8927    7.6400   49.9958 O   0  0  0  0  0  0  0  0  0  0  0  0
   -1.3862    9.1738   47.5462 C   0  0  0  0  0  0  0  0  0  0  0  0
   -2.1071    8.1783   46.9189 C   0  0  0  0  0  0  0  0  0  0  0  0
   -1.8398   10.4550   47.5858 N   0  0  0  0  0  0  0  0  0  0  0  0
   -3.4002   12.1706   47.1090 N   0  0  0  0  0  0  0  0  0  0  0  0
   -1.9629   14.0114   46.7276 C   0  0  0  0  0  0  0  0  0  0  0  0
   -2.9315   14.1387   45.6673 N   0  0  0  0  0  0  0  0  0  0  0  0
   -4.3044   14.1290   46.1270 C   0  0  0  0  0  0  0  0  0  0  0  0
   -4.6159   12.6740   46.4993 C   0  0  0  0  0  0  0  0  0  0  0  0
  1  2  1  1
  3  4  2  0
  4  5  1  0
  5  6  2  0
  3  7  1  0
  7  8  1  0
  6  9  1  0
 13 12  1  6
  9 15  1  0
 14 15  2  0
  2 16  1  0
 18 19  2  0
 19 20  1  0
  8 23  1  0
  2 23  1  6
 24 23  1  6
  3 24  1  0
  6 25  1  0
  7 25  2  0
  8 26  2  0
 10 27  1  0
  9 27  2  0
 10 28  1  0
 13 29  1  0
 29 28  1  6
 30 11  1  1
 29 30  1  0
 11 31  1  1
 12 31  1  6
 10 32  2  0
 14 32  1  0
 15 33  1  0
 16 34  2  0
 16 35  1  0
 36 35  1  6
 36 17  1  0
 17 37  1  1
 36 38  1  0
 38 39  2  0
 18 39  1  0
 20 40  2  0
 38 40  1  0
 21 41  1  1
 20 41  1  0
 21 42  1  0
 22 43  1  6
 42 43  1  6
 44 43  1  1
 44 45  1  0
 45 41  1  1
M  END
$$$$
