7VWF_K55_B_502
     RDKit          3D

 33 34  0  0  0  0  0  0  0  0999 V2000
   18.2069   -3.0193   34.3368 O   0  0  0  0  0  0  0  0  0  0  0  0
   20.3371   -2.2549   34.0570 O   0  0  0  0  0  0  0  0  0  0  0  0
   19.2876   -2.2804   34.7722 C   0  0  0  0  0  0  0  0  0  0  0  0
   19.3295   -1.5006   36.0281 C   0  0  1  0  0  0  0  0  0  0  0  0
   20.2062   -2.2455   37.0405 C   0  0  0  0  0  0  0  0  0  0  0  0
   19.4015   -3.3674   37.6529 C   0  0  0  0  0  0  0  0  0  0  0  0
   19.9363   -0.1392   35.7412 C   0  0  0  0  0  0  0  0  0  0  0  0
   18.9704    0.8408   35.2172 C   0  0  0  0  0  0  0  0  0  0  0  0
   18.6423    1.9430   35.9486 C   0  0  0  0  0  0  0  0  0  0  0  0
   17.7349    2.9226   35.5199 C   0  0  0  0  0  0  0  0  0  0  0  0
   17.1491    2.7486   34.2952 C   0  0  0  0  0  0  0  0  0  0  0  0
   17.4731    1.6313   33.5342 C   0  0  0  0  0  0  0  0  0  0  0  0
   18.3827    0.6755   33.9894 C   0  0  0  0  0  0  0  0  0  0  0  0
   16.2560    3.6585   33.8402 O   0  0  0  0  0  0  0  0  0  0  0  0
   15.3241    3.7830   32.9019 C   0  0  0  0  0  0  0  0  0  0  0  0
   14.3798    4.9315   32.8159 C   0  0  0  0  0  0  0  0  0  0  0  0
   14.9706    6.2939   32.8010 C   0  0  0  0  0  0  0  0  0  0  0  0
   13.8880    7.3558   32.6875 C   0  0  0  0  0  0  0  0  0  0  0  0
   17.5736    4.0697   36.4235 C   0  0  0  0  0  0  0  0  0  0  0  0
   16.5465    3.8759   37.3934 N   0  0  0  0  0  0  0  0  0  0  0  0
   15.9352    4.7678   38.2653 C   0  0  0  0  0  0  0  0  0  0  0  0
   16.2003    5.9790   38.1882 O   0  0  0  0  0  0  0  0  0  0  0  0
   14.9677    4.3936   39.3164 C   0  0  0  0  0  0  0  0  0  0  0  0
   14.0704    3.3652   39.1924 C   0  0  0  0  0  0  0  0  0  0  0  0
   13.2026    3.0164   40.2339 C   0  0  0  0  0  0  0  0  0  0  0  0
   13.2355    3.7260   41.4459 C   0  0  0  0  0  0  0  0  0  0  0  0
   14.1361    4.7577   41.5668 C   0  0  0  0  0  0  0  0  0  0  0  0
   14.9847    5.0912   40.5346 C   0  0  0  0  0  0  0  0  0  0  0  0
   12.3054    3.3039   42.5234 C   0  0  1  0  0  0  0  0  0  0  0  0
   13.9420    2.6255   38.0678 F   0  0  0  0  0  0  0  0  0  0  0  0
   12.0471    4.3473   43.4001 F   0  0  0  0  0  0  0  0  0  0  0  0
   11.1354    2.8463   41.9803 F   0  0  0  0  0  0  0  0  0  0  0  0
   12.9346    2.3272   43.2644 F   0  0  0  0  0  0  0  0  0  0  0  0
  1  3  1  0
  2  3  2  0
  4  3  1  6
  4  5  1  0
  5  6  1  6
  4  7  1  0
  7  8  1  1
  8  9  2  0
  9 10  1  0
 10 11  2  0
 11 12  1  0
  8 13  1  0
 12 13  2  0
 11 14  1  0
 15 14  1  6
 16 15  1  6
 16 17  1  0
 17 18  1  6
 10 19  1  0
 19 20  1  1
 20 21  1  0
 21 22  2  0
 21 23  1  0
 23 24  2  0
 24 25  1  0
 25 26  2  0
 26 27  1  0
 23 28  1  0
 27 28  2  0
 26 29  1  0
 24 30  1  0
 29 31  1  1
 29 32  1  0
 29 33  1  0
M  END
$$$$
