@<TRIPOS>MOLECULE
1SQN_NDR_B_2001
 48 51 0 0 0
SMALL
GASTEIGER

@<TRIPOS>ATOM
      1 O          -3.8229    2.1636    4.3611 O.2     1  UNL1       -0.2927
      2 C          -3.1519    1.7576    3.3756 C.2     1  UNL1        0.1561
      3 C          -3.6986    1.8979    1.9916 C.3     1  UNL1        0.0104
      4 C          -1.8013    1.2196    3.5834 C.2     1  UNL1       -0.0197
      5 C          -1.0768    0.7151    2.5688 C.2     1  UNL1       -0.0629
      6 C           0.3711    0.3693    2.8229 C.3     1  UNL1       -0.0308
      7 C          -1.5950    0.7441    1.1282 C.3     1  UNL1       -0.0160
      8 C          -3.1451    0.7946    1.0900 C.3     1  UNL1       -0.0392
      9 C          -1.0527   -0.4771    0.3235 C.3     1  UNL1       -0.0314
     10 C           0.4947   -0.5985    0.4959 C.3     1  UNL1       -0.0339
     11 C           0.8241   -0.8228    1.9816 C.3     1  UNL1       -0.0460
     12 C          -1.4743   -0.4245   -1.1780 C.3     1  UNL1       -0.0488
     13 C          -0.8363   -1.5418   -2.0375 C.3     1  UNL1       -0.0435
     14 C           0.7035   -1.5848   -1.8631 C.3     1  UNL1        0.0111
     15 C           1.0016   -1.7728   -0.3680 C.3     1  UNL1       -0.0289
     16 C           1.3229   -0.2737   -2.4564 C.3     1  UNL1       -0.0558
     17 C           1.4464   -2.8136   -2.4752 C.3     1  UNL1        0.1317
     18 O           1.7469   -2.6052   -3.8357 O.3     1  UNL1       -0.3760
     19 C           2.7412   -2.9124   -1.6184 C.3     1  UNL1       -0.0118
     20 C           2.4811   -2.1382   -0.3121 C.3     1  UNL1       -0.0458
     21 C           0.6668   -4.0703   -2.3460 C.1     1  UNL1       -0.0704
     22 C           0.0368   -5.0931   -2.2411 C.1     1  UNL1       -0.1163
     23 H          -4.8082    1.8334    2.0133 H       1  UNL1        0.0345
     24 H          -3.4105    2.8926    1.5884 H       1  UNL1        0.0345
     25 H          -1.3890    1.2520    4.5854 H       1  UNL1        0.0652
     26 H           0.5424    0.1218    3.8940 H       1  UNL1        0.0310
     27 H           0.9958    1.2551    2.5759 H       1  UNL1        0.0310
     28 H          -1.2078    1.6752    0.6572 H       1  UNL1        0.0349
     29 H          -3.4994    1.0028    0.0591 H       1  UNL1        0.0275
     30 H          -3.5645   -0.1843    1.4129 H       1  UNL1        0.0275
     31 H          -1.5152   -1.3966    0.7519 H       1  UNL1        0.0309
     32 H           0.9912    0.3447    0.1856 H       1  UNL1        0.0307
     33 H           0.3301   -1.7488    2.3518 H       1  UNL1        0.0271
     34 H           1.9205   -0.9433    2.1159 H       1  UNL1        0.0271
     35 H          -2.5736   -0.5559   -1.2575 H       1  UNL1        0.0268
     36 H          -1.2431    0.5723   -1.6074 H       1  UNL1        0.0268
     37 H          -1.0942   -1.3820   -3.1069 H       1  UNL1        0.0272
     38 H          -1.2976   -2.5038   -1.7277 H       1  UNL1        0.0272
     39 H           0.4546   -2.6793   -0.0101 H       1  UNL1        0.0310
     40 H           1.0689   -0.1862   -3.5342 H       1  UNL1        0.0236
     41 H           2.4290   -0.2617   -2.3715 H       1  UNL1        0.0236
     42 H           0.9507    0.6487   -1.9746 H       1  UNL1        0.0236
     43 H           2.3438   -3.3434   -4.1299 H       1  UNL1        0.2114
     44 H           3.5983   -2.4462   -2.1528 H       1  UNL1        0.0303
     45 H           3.0198   -3.9675   -1.3983 H       1  UNL1        0.0303
     46 H           2.7018   -2.7715    0.5747 H       1  UNL1        0.0269
     47 H           3.1093   -1.2216   -0.2694 H       1  UNL1        0.0269
     48 H          -0.5164   -5.9903   -2.1485 H       1  UNL1        0.1229
@<TRIPOS>BOND
     1     1     2    2
     2     2     3    1
     3     2     4    1
     4     4     5    2
     5     5     6    1
     6     5     7    1
     7     3     8    1
     8     7     8    1
     9     7     9    1
    10     9    10    1
    11     6    11    1
    12    10    11    1
    13     9    12    1
    14    12    13    1
    15    13    14    1
    16    10    15    1
    17    14    15    1
    18    14    16    1
    19    14    17    1
    20    17    18    1
    21    17    19    1
    22    15    20    1
    23    19    20    1
    24    17    21    1
    25    21    22    3
    26     3    23    1
    27     3    24    1
    28     4    25    1
    29     6    26    1
    30     6    27    1
    31     7    28    1
    32     8    29    1
    33     8    30    1
    34     9    31    1
    35    10    32    1
    36    11    33    1
    37    11    34    1
    38    12    35    1
    39    12    36    1
    40    13    37    1
    41    13    38    1
    42    15    39    1
    43    16    40    1
    44    16    41    1
    45    16    42    1
    46    18    43    1
    47    19    44    1
    48    19    45    1
    49    20    46    1
    50    20    47    1
    51    22    48    1
