@<TRIPOS>MOLECULE
1SQN_NDR_B_2001
 48 51 0 0 0
SMALL
GASTEIGER

@<TRIPOS>ATOM
      1 O          13.6340   27.3160    2.8270 O.2     1  UNL1       -0.2927
      2 C          13.0950   26.6900    3.6740 C.2     1  UNL1        0.1561
      3 C          11.5840   26.5160    3.7250 C.3     1  UNL1        0.0104
      4 C          13.9840   26.0000    4.6460 C.2     1  UNL1       -0.0197
      5 C          13.3030   25.3140    5.7080 C.2     1  UNL1       -0.0629
      6 C          14.2420   24.5200    6.6480 C.3     1  UNL1       -0.0308
      7 C          11.9310   25.3170    6.0270 C.3     1  UNL1       -0.0160
      8 C          11.1140   26.3650    5.2110 C.3     1  UNL1       -0.0392
      9 C          11.5690   25.2100    7.4190 C.3     1  UNL1       -0.0314
     10 C          12.3050   24.4370    8.3560 C.3     1  UNL1       -0.0339
     11 C          13.8460   24.5280    8.1510 C.3     1  UNL1       -0.0460
     12 C          10.0550   25.3520    7.7300 C.3     1  UNL1       -0.0488
     13 C           9.7310   25.3670    9.2480 C.3     1  UNL1       -0.0435
     14 C          10.4130   24.2660   10.0830 C.3     1  UNL1        0.0111
     15 C          11.8900   24.3280    9.7230 C.3     1  UNL1       -0.0289
     16 C           9.8450   22.8630    9.6540 C.3     1  UNL1       -0.0558
     17 C          10.4240   24.3410   11.6060 C.3     1  UNL1        0.1317
     18 O           9.2540   23.8750   12.2860 O.3     1  UNL1       -0.3760
     19 C          11.6680   23.5360   12.0170 C.3     1  UNL1       -0.0118
     20 C          12.6380   23.5840   10.8150 C.3     1  UNL1       -0.0458
     21 C          10.6670   25.7460   12.0480 C.1     1  UNL1       -0.0704
     22 C          10.9800   26.8940   12.5100 C.1     1  UNL1       -0.1163
     23 H          11.3091   25.6401    3.1753 H       1  UNL1        0.0345
     24 H          11.1159   27.3760    3.2935 H       1  UNL1        0.0345
     25 H          15.0126   26.0131    4.5636 H       1  UNL1        0.0652
     26 H          15.2235   24.9376    6.5633 H       1  UNL1        0.0310
     27 H          14.1793   23.4994    6.3328 H       1  UNL1        0.0310
     28 H          11.6102   24.3570    5.6799 H       1  UNL1        0.0349
     29 H          10.0867   26.0658    5.2110 H       1  UNL1        0.0275
     30 H          11.2648   27.3133    5.6831 H       1  UNL1        0.0275
     31 H          12.0663   26.1229    7.6723 H       1  UNL1        0.0309
     32 H          11.9700   23.4661    8.0560 H       1  UNL1        0.0307
     33 H          14.1994   25.4350    8.5952 H       1  UNL1        0.0271
     34 H          14.2889   23.6695    8.6111 H       1  UNL1        0.0271
     35 H           9.5390   24.5286    7.2821 H       1  UNL1        0.0268
     36 H           9.7402   26.2943    7.3327 H       1  UNL1        0.0268
     37 H           8.6725   25.2578    9.3602 H       1  UNL1        0.0272
     38 H          10.1108   26.2955    9.6202 H       1  UNL1        0.0272
     39 H          12.2997   25.3164    9.7193 H       1  UNL1        0.0310
     40 H           9.8311   22.7952    8.5862 H       1  UNL1        0.0236
     41 H           8.8502   22.7504   10.0316 H       1  UNL1        0.0236
     42 H          10.4674   22.0892   10.0524 H       1  UNL1        0.0236
     43 H           9.0678   22.9610   12.0198 H       1  UNL1        0.2114
     44 H          11.3981   22.5236   12.2341 H       1  UNL1        0.0303
     45 H          12.1205   23.9448   12.8962 H       1  UNL1        0.0303
     46 H          13.5341   24.1064   11.0777 H       1  UNL1        0.0269
     47 H          12.9306   22.6041   10.5003 H       1  UNL1        0.0269
     48 H          11.2237   27.7880   12.8698 H       1  UNL1        0.1229
@<TRIPOS>BOND
     1     1     2    2
     2     2     3    1
     3     2     4    1
     4     4     5    2
     5     5     6    1
     6     5     7    1
     7     3     8    1
     8     7     8    1
     9     7     9    1
    10     9    10    1
    11     6    11    1
    12    10    11    1
    13     9    12    1
    14    12    13    1
    15    13    14    1
    16    10    15    1
    17    14    15    1
    18    14    16    1
    19    14    17    1
    20    17    18    1
    21    17    19    1
    22    15    20    1
    23    19    20    1
    24    17    21    1
    25    21    22    3
    26     3    23    1
    27     3    24    1
    28     4    25    1
    29     6    26    1
    30     6    27    1
    31     7    28    1
    32     8    29    1
    33     8    30    1
    34     9    31    1
    35    10    32    1
    36    11    33    1
    37    11    34    1
    38    12    35    1
    39    12    36    1
    40    13    37    1
    41    13    38    1
    42    15    39    1
    43    16    40    1
    44    16    41    1
    45    16    42    1
    46    18    43    1
    47    19    44    1
    48    19    45    1
    49    20    46    1
    50    20    47    1
    51    22    48    1
