@<TRIPOS>MOLECULE
1MMV_3AR_B_2785
 36 35 0 0 0
SMALL
GASTEIGER

@<TRIPOS>ATOM
      1 N1         16.2570   -0.2330   56.1650 N.3     1  <1>        -0.3184
      2 C1         16.7400   -0.3140   57.5460 C.3     1  <1>         0.1033
      3 C2         17.5900   -1.5500   57.7510 C.2     1  <1>         0.3217
      4 O1         17.6820   -2.4220   56.8900 O.2     1  <1>        -0.2493
      5 C3         15.5190   -0.3280   58.5000 C.3     1  <1>        -0.0245
      6 C4         14.9210    1.0660   58.8190 C.3     1  <1>        -0.0203
      7 C5         13.5590    1.3240   58.1530 C.3     1  <1>         0.0646
      8 N2         12.7440    0.0690   58.1450 N.pl3   1  <1>        -0.2786
      9 C6         11.6250   -0.1430   58.8290 C.cat   1  <1>         0.3433
     10 N3         11.0650    0.7500   59.6270 N.pl3   1  <1>        -0.2786
     11 N4         11.0620   -1.3110   58.6820 N.pl3   1  <1>        -0.2917
     12 C7         10.6040    0.3170   60.9710 C.3     1  <1>         0.0643
     13 C8         10.5150    1.5410   61.9150 C.3     1  <1>        -0.0251
     14 C9         11.8640    1.7310   62.6530 C.3     1  <1>        -0.0624
     15 O2         18.1680   -1.6430   58.8340 O.3     1  <1>        -0.4795
     16 H1         17.0525   -0.2230   55.5266 H       1  <1>         0.1190
     17 H2         15.7136    0.6217   56.0444 H       1  <1>         0.1190
     18 H3         17.3541    0.5364   57.7574 H       1  <1>         0.0574
     19 H4         15.8233   -0.7775   59.4221 H       1  <1>         0.0286
     20 H5         14.7506   -0.8744   57.9942 H       1  <1>         0.0286
     21 H6         15.6085    1.8133   58.4816 H       1  <1>         0.0296
     22 H7         14.7628    1.1028   59.8766 H       1  <1>         0.0296
     23 H8         13.7139    1.6517   57.1463 H       1  <1>         0.0655
     24 H9         13.0365    2.0771   58.7050 H       1  <1>         0.0655
     25 H10        13.0675   -0.6691   57.5796 H       1  <1>         0.2578
     26 H11        10.9556    1.6841   59.3360 H       1  <1>         0.2578
     27 H12        11.4705   -1.9834   58.0902 H       1  <1>         0.2546
     28 H13        10.2287   -1.5198   59.1629 H       1  <1>         0.2546
     29 H14        11.2975   -0.3918   61.3730 H       1  <1>         0.0655
     30 H15         9.6372   -0.1333   60.8845 H       1  <1>         0.0655
     31 H16         9.7369    1.3813   62.6319 H       1  <1>         0.0293
     32 H17        10.2996    2.4171   61.3397 H       1  <1>         0.0293
     33 H18        12.0817    0.8560   63.2292 H       1  <1>         0.0231
     34 H19        11.7989    2.5787   63.3026 H       1  <1>         0.0231
     35 H20        12.6431    1.8895   61.9369 H       1  <1>         0.0231
     36 H21        18.0798   -0.9625   59.4721 H       1  <1>         0.2951
@<TRIPOS>UNITY_ATOM_ATTR
11 1
charge 1
@<TRIPOS>BOND
     1     2     1    1
     2     2     3    1
     3     3     4    2
     4     2     5    1
     5     5     6    1
     6     6     7    1
     7     7     8    1
     8     8     9    1
     9     9    10    1
    10     9    11    2
    11    10    12    1
    12    12    13    1
    13    13    14    1
    14     3    15    1
    15     1    16    1
    16     1    17    1
    17     2    18    1
    18     5    19    1
    19     5    20    1
    20     6    21    1
    21     6    22    1
    22     7    23    1
    23     7    24    1
    24     8    25    1
    25    10    26    1
    26    11    27    1
    27    11    28    1
    28    12    29    1
    29    12    30    1
    30    13    31    1
    31    13    32    1
    32    14    33    1
    33    14    34    1
    34    14    35    1
    35    15    36    1
