1MMV_3AR_A_1785
     RDKit          3D

 15 14  0  0  0  0  0  0  0  0999 V2000
    9.4840   -1.1740   26.2020 N   0  0  0  0  0  0  0  0  0  0  0  0
    9.0660   -1.5300   24.8440 C   0  0  2  0  0  0  0  0  0  0  0  0
    8.9150   -3.0400   24.7040 C   0  0  0  0  0  0  0  0  0  0  0  0
    9.2860   -3.8170   25.5890 O   0  0  0  0  0  0  0  0  0  0  0  0
   10.1130   -0.9800   23.8360 C   0  0  0  0  0  0  0  0  0  0  0  0
   10.1050    0.5640   23.6440 C   0  0  0  0  0  0  0  0  0  0  0  0
   11.2380    1.2920   24.3880 C   0  0  0  0  0  0  0  0  0  0  0  0
   12.4710    0.4450   24.4120 N   0  0  0  0  0  0  0  0  0  0  0  0
   13.5700    0.6450   23.6830 C   0  0  0  0  0  0  0  0  0  0  0  0
   13.7180    1.6440   22.8280 N   0  0  0  0  0  0  0  0  0  0  0  0
   14.5420   -0.2090   23.8460 N   0  0  0  0  0  0  0  0  0  0  0  0
   14.4990    1.4220   21.5880 C   0  0  0  0  0  0  0  0  0  0  0  0
   14.1680    2.5300   20.5600 C   0  0  0  0  0  0  0  0  0  0  0  0
   12.7880    2.2740   19.9350 C   0  0  0  0  0  0  0  0  0  0  0  0
    8.4060   -3.4460   23.6460 O   0  0  0  0  0  0  0  0  0  0  0  0
  2  1  1  1
  2  3  1  0
  3  4  2  0
  2  5  1  0
  5  6  1  0
  6  7  1  0
  7  8  1  0
  8  9  1  0
  9 10  1  0
  9 11  2  0
 10 12  1  0
 12 13  1  0
 13 14  1  0
  3 15  1  0
M  CHG  1  11   1
M  END
$$$$
1MMV_3AR_B_2785
     RDKit          3D

 15 14  0  0  0  0  0  0  0  0999 V2000
   16.2570   -0.2330   56.1650 N   0  0  0  0  0  0  0  0  0  0  0  0
   16.7400   -0.3140   57.5460 C   0  0  2  0  0  0  0  0  0  0  0  0
   17.5900   -1.5500   57.7510 C   0  0  0  0  0  0  0  0  0  0  0  0
   17.6820   -2.4220   56.8900 O   0  0  0  0  0  0  0  0  0  0  0  0
   15.5190   -0.3280   58.5000 C   0  0  0  0  0  0  0  0  0  0  0  0
   14.9210    1.0660   58.8190 C   0  0  0  0  0  0  0  0  0  0  0  0
   13.5590    1.3240   58.1530 C   0  0  0  0  0  0  0  0  0  0  0  0
   12.7440    0.0690   58.1450 N   0  0  0  0  0  0  0  0  0  0  0  0
   11.6250   -0.1430   58.8290 C   0  0  0  0  0  0  0  0  0  0  0  0
   11.0650    0.7500   59.6270 N   0  0  0  0  0  0  0  0  0  0  0  0
   11.0620   -1.3110   58.6820 N   0  0  0  0  0  0  0  0  0  0  0  0
   10.6040    0.3170   60.9710 C   0  0  0  0  0  0  0  0  0  0  0  0
   10.5150    1.5410   61.9150 C   0  0  0  0  0  0  0  0  0  0  0  0
   11.8640    1.7310   62.6530 C   0  0  0  0  0  0  0  0  0  0  0  0
   18.1680   -1.6430   58.8340 O   0  0  0  0  0  0  0  0  0  0  0  0
  2  1  1  6
  2  3  1  0
  3  4  2  0
  2  5  1  0
  5  6  1  0
  6  7  1  0
  7  8  1  0
  8  9  1  0
  9 10  1  0
  9 11  2  0
 10 12  1  0
 12 13  1  0
 13 14  1  0
  3 15  1  0
M  CHG  1  11   1
M  END
$$$$
