1MMV_3AR_B_2785
     RDKit          3D

 36 35  0  0  0  0  0  0  0  0999 V2000
   -3.6996    1.6524   -0.6914 N   0  0  0  0  0  0  0  0  0  0  0  0
   -2.9164    0.4491   -0.3997 C   0  0  2  0  0  0  0  0  0  0  0  0
   -3.2638   -0.0997    0.9581 C   0  0  0  0  0  0  0  0  0  0  0  0
   -3.6442    0.6682    1.8832 O   0  0  0  0  0  0  0  0  0  0  0  0
   -1.4043    0.7308   -0.5106 C   0  0  0  0  0  0  0  0  0  0  0  0
   -0.9205    1.8628    0.4165 C   0  0  0  0  0  0  0  0  0  0  0  0
    0.5733    2.1607    0.2318 C   0  0  0  0  0  0  0  0  0  0  0  0
    1.3897    1.0550    0.7350 N   0  0  0  0  0  0  0  0  0  0  0  0
    1.8788    0.0064   -0.1148 C   0  0  0  0  0  0  0  0  0  0  0  0
    1.7260   -1.3565    0.3172 N   0  0  0  0  0  0  0  0  0  0  0  0
    2.4685    0.2931   -1.2391 N   0  0  0  0  0  4  0  0  0  0  0  0
    1.8604   -2.5019   -0.5861 C   0  0  0  0  0  0  0  0  0  0  0  0
    1.3078   -3.7857    0.0466 C   0  0  0  0  0  0  0  0  0  0  0  0
   -0.2134   -3.7421    0.1940 C   0  0  0  0  0  0  0  0  0  0  0  0
   -3.1167   -1.4610    1.2059 O   0  0  0  0  0  0  0  0  0  0  0  0
   -3.4789    1.9600   -1.6666 H   0  0  0  0  0  0  0  0  0  0  0  0
   -4.7130    1.3919   -0.6937 H   0  0  0  0  0  0  0  0  0  0  0  0
   -3.1704   -0.3310   -1.1531 H   0  0  0  0  0  0  0  0  0  0  0  0
   -0.8562   -0.2067   -0.2766 H   0  0  0  0  0  0  0  0  0  0  0  0
   -1.1687    0.9975   -1.5643 H   0  0  0  0  0  0  0  0  0  0  0  0
   -1.4877    2.7915    0.1916 H   0  0  0  0  0  0  0  0  0  0  0  0
   -1.1082    1.5957    1.4786 H   0  0  0  0  0  0  0  0  0  0  0  0
    0.8272    3.0764    0.8075 H   0  0  0  0  0  0  0  0  0  0  0  0
    0.7855    2.3736   -0.8367 H   0  0  0  0  0  0  0  0  0  0  0  0
    1.3429    0.8634    1.7613 H   0  0  0  0  0  0  0  0  0  0  0  0
    1.3949   -1.5153    1.2958 H   0  0  0  0  0  0  0  0  0  0  0  0
    2.8503   -0.4472   -1.8670 H   0  0  0  0  0  0  0  0  0  0  0  0
    2.6253    1.2830   -1.5296 H   0  0  0  0  0  0  0  0  0  0  0  0
    2.9358   -2.6516   -0.8217 H   0  0  0  0  0  0  0  0  0  0  0  0
    1.3168   -2.3003   -1.5353 H   0  0  0  0  0  0  0  0  0  0  0  0
    1.7758   -3.9497    1.0415 H   0  0  0  0  0  0  0  0  0  0  0  0
    1.5757   -4.6477   -0.6019 H   0  0  0  0  0  0  0  0  0  0  0  0
   -0.6937   -3.5992   -0.7974 H   0  0  0  0  0  0  0  0  0  0  0  0
   -0.5209   -2.9168    0.8696 H   0  0  0  0  0  0  0  0  0  0  0  0
   -0.5711   -4.7006    0.6253 H   0  0  0  0  0  0  0  0  0  0  0  0
   -3.3242   -1.8487    2.1183 H   0  0  0  0  0  0  0  0  0  0  0  0
  2  1  1  0
  2  3  1  0
  3  4  2  0
  2  5  1  0
  5  6  1  0
  6  7  1  0
  7  8  1  0
  8  9  1  0
  9 10  1  0
  9 11  2  0
 10 12  1  0
 12 13  1  0
 13 14  1  0
  3 15  1  0
  1 16  1  0
  1 17  1  0
  2 18  1  6
  5 19  1  0
  5 20  1  0
  6 21  1  0
  6 22  1  0
  7 23  1  0
  7 24  1  0
  8 25  1  0
 10 26  1  0
 11 27  1  0
 11 28  1  0
 12 29  1  0
 12 30  1  0
 13 31  1  0
 13 32  1  0
 14 33  1  0
 14 34  1  0
 14 35  1  0
 15 36  1  0
M  CHG  1  11   1
M  END
