8ACL_LQL_A_401
     RDKit          3D

 31 34  0  0  0  0  0  0  0  0999 V2000
   10.4585   -4.0626   23.5810 N   0  0  0  0  0  0  0  0  0  0  0  0
    9.9311   -6.7454   27.4146 N   0  0  0  0  0  0  0  0  0  0  0  0
   11.1779    4.3864   20.9115 C   0  0  0  0  0  0  0  0  0  0  0  0
    9.9930    4.3779   21.6324 C   0  0  0  0  0  0  0  0  0  0  0  0
   10.7147   -1.7237   23.1321 C   0  0  1  0  0  0  0  0  0  0  0  0
   11.0589   -3.1481   22.6556 C   0  0  0  0  0  0  0  0  0  0  0  0
    8.9909   -4.0077   23.7137 C   0  0  0  0  0  0  0  0  0  0  0  0
    9.7230   -0.5596   25.0335 C   0  0  0  0  0  0  0  0  0  0  0  0
    9.7864    1.7089   26.6951 C   0  0  0  0  0  0  0  0  0  0  0  0
    8.8317   -0.3789   26.0539 C   0  0  0  0  0  0  0  0  0  0  0  0
   10.4612   -5.9644   25.2101 C   0  0  0  0  0  0  0  0  0  0  0  0
    9.0330   -7.8760   25.4983 C   0  0  0  0  0  0  0  0  0  0  0  0
    9.6869   -6.9771   24.6644 C   0  0  0  0  0  0  0  0  0  0  0  0
   11.2709   -0.1715   21.2306 N   0  0  0  0  0  0  0  0  0  0  0  0
   10.2970   -0.9310   21.9220 C   0  0  0  0  0  0  0  0  0  0  0  0
    9.1136   -0.9146   21.5051 O   0  0  0  0  0  0  0  0  0  0  0  0
   10.9385    0.7295   20.1196 C   0  0  0  0  0  0  0  0  0  0  0  0
   10.6723    0.4591   24.8693 C   0  0  0  0  0  0  0  0  0  0  0  0
   10.6959    1.5698   25.6894 C   0  0  0  0  0  0  0  0  0  0  0  0
    8.8526    0.7471   26.8882 C   0  0  0  0  0  0  0  0  0  0  0  0
   11.1644   -5.0086   24.3669 C   0  0  0  0  0  0  0  0  0  0  0  0
   10.5705   -5.8669   26.6041 C   0  0  0  0  0  0  0  0  0  0  0  0
    9.1804   -7.7271   26.8637 C   0  0  0  0  0  0  0  0  0  0  0  0
   10.8582    2.1103   20.5281 C   0  0  0  0  0  0  0  0  0  0  0  0
   11.5800    3.2378   20.3745 C   0  0  0  0  0  0  0  0  0  0  0  0
    8.6954   -2.6811   24.3986 C   0  0  0  0  0  0  0  0  0  0  0  0
    9.7015   -1.7012   24.1576 N   0  0  0  0  0  0  0  0  0  0  0  0
   12.4148   -5.0308   24.3429 O   0  0  0  0  0  0  0  0  0  0  0  0
    9.3930    2.6346   21.5545 S   0  0  0  0  0  0  0  0  0  0  0  0
   11.8940    2.8236   25.4505 Cl  0  0  0  0  0  0  0  0  0  0  0  0
    9.7979    3.1255   27.7485 Cl  0  0  0  0  0  0  0  0  0  0  0  0
  3  4  2  0
  6  1  1  6
  5  6  1  0
  7  1  1  1
  8 10  1  0
 12 13  1  0
 11 13  2  0
  5 15  1  6
 14 15  1  0
 15 16  2  0
 17 14  1  6
  8 18  2  0
 18 19  1  0
  9 19  2  0
 10 20  2  0
  9 20  1  0
 11 21  1  0
  1 21  1  0
  2 22  2  0
 11 22  1  0
 12 23  2  0
  2 23  1  0
 17 24  1  0
 24 25  2  0
  3 25  1  0
  7 26  1  0
  5 27  1  0
 26 27  1  1
  8 27  1  0
 21 28  2  0
 24 29  1  0
  4 29  1  0
 19 30  1  0
  9 31  1  0
M  END
$$$$
