
     RDKit          3D

 39 41  0  0  0  0  0  0  0  0999 V2000
   25.8334  -28.8525   37.3977 C   0  0  1  0  0  0  0  0  0  0  0  0
   25.8146  -27.6898   36.3737 C   0  0  1  0  0  0  0  0  0  0  0  0
   26.4790  -26.4607   37.0053 C   0  0  2  0  0  0  0  0  0  0  0  0
   25.7486  -26.1051   38.3078 C   0  0  1  0  0  0  0  0  0  0  0  0
   25.6651  -27.3280   39.2385 C   0  0  1  0  0  0  0  0  0  0  0  0
   24.8249  -27.0113   40.4852 C   0  0  0  0  0  0  0  0  0  0  0  0
   25.5964  -28.3737   34.0105 C   0  0  0  0  0  0  0  0  0  0  0  0
   26.3093  -28.4672   32.6882 C   0  0  0  0  0  0  0  0  0  0  0  0
   26.4054  -28.0139   35.0707 N   0  0  0  0  0  0  0  0  0  0  0  0
   27.1396  -29.2055   37.8205 O   0  0  0  0  0  0  0  0  0  0  0  0
   26.4056  -25.3223   36.1298 O   0  0  0  0  0  0  0  0  0  0  0  0
   26.4141  -25.0106   38.9503 O   0  0  0  0  0  0  0  0  0  0  0  0
   25.0904  -28.4584   38.5625 O   0  0  0  0  0  0  0  0  0  0  0  0
   23.5341  -26.5146   40.1420 O   0  0  0  0  0  0  0  0  0  0  0  0
   24.3867  -28.5463   34.1171 O   0  0  0  0  0  0  0  0  0  0  0  0
   30.0603  -33.6360   43.0921 N   0  0  0  0  0  0  0  0  0  0  0  0
   30.1713  -34.9523   43.5285 C   0  0  0  0  0  0  0  0  0  0  0  0
   29.8118  -35.9201   42.6304 N   0  0  0  0  0  0  0  0  0  0  0  0
   29.3066  -35.7096   41.3808 C   0  0  0  0  0  0  0  0  0  0  0  0
   29.1175  -34.3029   41.0048 C   0  0  0  0  0  0  0  0  0  0  0  0
   29.4873  -33.3508   41.8626 C   0  0  0  0  0  0  0  0  0  0  0  0
   30.5849  -35.2767   44.6424 O   0  0  0  0  0  0  0  0  0  0  0  0
   29.0169  -36.6231   40.6188 O   0  0  0  0  0  0  0  0  0  0  0  0
   30.3765  -32.5487   44.0367 C   0  0  1  0  0  0  0  0  0  0  0  0
   30.8764  -31.2478   43.3709 C   0  0  2  0  0  0  0  0  0  0  0  0
   32.2922  -31.1512   43.2039 O   0  0  0  0  0  0  0  0  0  0  0  0
   30.4265  -30.1935   44.3603 C   0  0  1  0  0  0  0  0  0  0  0  0
   29.0931  -30.7373   44.8463 C   0  0  2  0  0  0  0  0  0  0  0  0
   29.1971  -32.1819   44.7939 O   0  0  0  0  0  0  0  0  0  0  0  0
   31.3598  -30.1350   45.4489 O   0  0  0  0  0  0  0  0  0  0  0  0
   27.9288  -30.2980   43.9517 C   0  0  0  0  0  0  0  0  0  0  0  0
   28.2913  -30.4537   42.5831 O   0  0  0  0  0  0  0  0  0  0  0  0
   27.1221  -30.4425   41.4887 P   0  0  2  0  0  5  0  0  0  0  0  0
   25.9232  -29.6279   41.8229 O   0  0  0  0  0  0  0  0  0  0  0  0
   26.8395  -32.0081   41.3025 O   0  0  0  0  0  0  0  0  0  0  0  0
   27.8595  -30.0708   40.1375 O   0  0  0  0  0  0  0  0  0  0  0  0
   27.3815  -30.5167   38.6954 P   0  0  1  0  0  5  0  0  0  0  0  0
   26.3238  -31.5601   38.5796 O   0  0  0  0  0  0  0  0  0  0  0  0
   28.7665  -31.0084   38.0463 O   0  0  0  0  0  0  0  0  0  0  0  0
  1  2  1  0
  2  3  1  0
  3  4  1  0
  4  5  1  0
  5  6  1  1
  7  8  1  0
  2  9  1  6
  7  9  1  0
  1 10  1  1
  3 11  1  6
  4 12  1  1
  1 13  1  0
  5 13  1  0
  6 14  1  0
  7 15  2  0
 16 17  4  0
 17 18  4  0
 18 19  4  0
 19 20  4  0
 16 21  4  0
 20 21  4  0
 17 22  2  0
 19 23  2  0
 24 16  1  6
 24 25  1  0
 25 26  1  1
 25 27  1  0
 27 28  1  0
 24 29  1  0
 28 29  1  0
 27 30  1  1
 28 31  1  6
 31 32  1  0
 33 32  1  0
 33 34  2  0
 33 35  1  6
 33 36  1  0
 37 10  1  0
 36 37  1  0
 37 38  2  0
 37 39  1  6
M  END
