6Z5Z_BDF_A_103
     RDKit          3D

 24 24  0  0  0  0  0  0  0  0999 V2000
   -5.0604   12.8765  -19.4238 C   0  0  2  0  0  0  0  0  0  0  0  0
   -4.3701   11.7667  -20.2457 C   0  0  1  0  0  0  0  0  0  0  0  0
   -4.2584   10.4408  -19.4076 C   0  0  2  0  0  0  0  0  0  0  0  0
   -3.0210    9.6337  -19.8522 C   0  0  1  0  0  0  0  0  0  0  0  0
   -1.7388   10.4909  -19.6994 C   0  0  1  0  0  0  0  0  0  0  0  0
   -2.0574   11.9961  -19.7793 C   0  0  1  0  0  0  0  0  0  0  0  0
   -4.1318   13.5651  -18.6273 O   0  0  0  0  0  0  0  0  0  0  0  0
   -5.1683   11.5369  -21.3818 O   0  0  0  0  0  0  0  0  0  0  0  0
   -5.4381    9.6749  -19.4845 O   0  0  0  0  0  0  0  0  0  0  0  0
   -2.9122    8.4510  -19.0994 O   0  0  0  0  0  0  0  0  0  0  0  0
   -1.1038   10.2340  -18.4715 O   0  0  0  0  0  0  0  0  0  0  0  0
   -3.1020   12.2502  -20.6996 O   0  0  0  0  0  0  0  0  0  0  0  0
   -5.8123   12.4101  -18.7517 H   0  0  0  0  0  0  0  0  0  0  0  0
   -5.6122   13.5848  -20.0827 H   0  0  0  0  0  0  0  0  0  0  0  0
   -4.1076   10.6972  -18.3348 H   0  0  0  0  0  0  0  0  0  0  0  0
   -3.1292    9.3776  -20.9334 H   0  0  0  0  0  0  0  0  0  0  0  0
   -1.0482   10.2419  -20.5405 H   0  0  0  0  0  0  0  0  0  0  0  0
   -2.3067   12.4031  -18.7741 H   0  0  0  0  0  0  0  0  0  0  0  0
   -1.1490   12.5377  -20.1182 H   0  0  0  0  0  0  0  0  0  0  0  0
   -4.6304   14.2847  -18.1597 H   0  0  0  0  0  0  0  0  0  0  0  0
   -5.0840   10.5756  -21.6155 H   0  0  0  0  0  0  0  0  0  0  0  0
   -5.9257    9.9402  -20.3072 H   0  0  0  0  0  0  0  0  0  0  0  0
   -3.5947    7.8200  -19.4481 H   0  0  0  0  0  0  0  0  0  0  0  0
   -0.6653    9.3465  -18.5509 H   0  0  0  0  0  0  0  0  0  0  0  0
  1  2  1  0
  2  3  1  0
  3  4  1  0
  4  5  1  0
  5  6  1  0
  1  7  1  0
  2  8  1  6
  3  9  1  0
  4 10  1  0
  5 11  1  0
  2 12  1  0
  6 12  1  0
  1 13  1  1
  1 14  1  0
  3 15  1  1
  4 16  1  6
  5 17  1  6
  6 18  1  1
  6 19  1  0
  7 20  1  0
  8 21  1  0
  9 22  1  0
 10 23  1  0
 11 24  1  0
M  END
