
     RDKit          3D

 23 25  0  0  0  0  0  0  0  0999 V2000
   -9.2952   52.6337   40.9249 N   0  0  0  0  0  0  0  0  0  0  0  0
   -9.7550   51.7919   39.9238 C   0  0  0  0  0  0  0  0  0  0  0  0
   -9.0222   50.4982   40.1411 C   0  0  0  0  0  0  0  0  0  0  0  0
   -7.2576   49.8509   41.9571 C   0  0  0  0  0  0  0  0  0  0  0  0
   -6.5757   50.3720   43.0626 C   0  0  0  0  0  0  0  0  0  0  0  0
   -6.7931   51.6963   43.4895 C   0  0  0  0  0  0  0  0  0  0  0  0
   -7.6965   52.5256   42.8200 C   0  0  0  0  0  0  0  0  0  0  0  0
   -8.3578   51.9921   41.7333 C   0  0  0  0  0  0  0  0  0  0  0  0
   -8.1497   50.6775   41.2996 C   0  0  0  0  0  0  0  0  0  0  0  0
  -10.5715   52.0386   39.0556 O   0  0  0  0  0  0  0  0  0  0  0  0
   -9.1820   49.4098   39.3769 C   0  0  0  0  0  0  0  0  0  0  0  0
  -10.0189   49.2812   38.2960 N   0  0  0  0  0  0  0  0  0  0  0  0
  -10.0256   48.3245   37.2689 C   0  0  0  0  0  0  0  0  0  0  0  0
   -8.9342   47.4984   36.9673 C   0  0  0  0  0  0  0  0  0  0  0  0
   -9.0017   46.5571   35.9332 C   0  0  0  0  0  0  0  0  0  0  0  0
  -10.1722   46.4382   35.1846 C   0  0  0  0  0  0  0  0  0  0  0  0
  -11.2783   47.2364   35.4724 C   0  0  0  0  0  0  0  0  0  0  0  0
  -11.1974   48.1732   36.5068 C   0  0  0  0  0  0  0  0  0  0  0  0
  -10.2781   45.2417   33.8812 S   0  0  0  0  0  6  0  0  0  0  0  0
   -9.3608   45.6454   32.8387 O   0  0  0  0  0  0  0  0  0  0  0  0
  -11.6702   44.9629   33.6065 O   0  0  0  0  0  0  0  0  0  0  0  0
   -9.6067   43.8809   34.5981 N   0  0  0  0  0  0  0  0  0  0  0  0
  -10.4506   43.0428   35.4378 C   0  0  0  0  0  0  0  0  0  0  0  0
  1  2  1  0
  2  3  1  0
  4  5  4  0
  5  6  4  0
  6  7  4  0
  1  8  1  0
  7  8  4  0
  3  9  1  0
  4  9  4  0
  8  9  4  0
  2 10  2  0
  3 11  2  0
 11 12  1  0
 12 13  1  0
 13 14  4  0
 14 15  4  0
 15 16  4  0
 16 17  4  0
 13 18  4  0
 17 18  4  0
 16 19  1  0
 19 20  2  0
 19 21  2  0
 19 22  1  0
 22 23  1  0
M  END
