7XI7_4RI_A_201
     RDKit          3D

 42 43  0  0  0  0  0  0  0  0999 V2000
   -1.9697   -3.1399   -3.1440 C   0  0  0  0  0  0  0  0  0  0  0  0
   -1.5322   -4.4089   -2.6988 C   0  0  0  0  0  0  0  0  0  0  0  0
   -2.4837   -5.4494   -2.6278 C   0  0  0  0  0  0  0  0  0  0  0  0
   -3.7736   -5.2040   -2.9762 N   0  0  0  0  0  0  0  0  0  0  0  0
   -3.2769   -2.9643   -3.4733 N   0  0  0  0  0  0  0  0  0  0  0  0
   -0.7314   -4.3854   -3.1479 C   0  0  0  0  0  0  0  0  0  0  0  0
    0.2528   -4.7533   -2.0413 C   0  0  0  0  0  0  0  0  0  0  0  0
   -0.1184   -4.0705   -0.7201 C   0  0  0  0  0  0  0  0  0  0  0  0
   -0.1148   -2.5426   -0.8729 C   0  0  0  0  0  0  0  0  0  0  0  0
    0.1856   -2.0870   -2.3126 C   0  0  0  0  0  0  0  0  0  0  0  0
   -1.0569   -1.9385   -3.2089 C   0  0  0  0  0  0  0  0  0  0  0  0
   -4.1738   -3.9779   -3.3948 C   0  0  0  0  0  0  0  0  0  0  0  0
   -5.5366   -3.7532   -3.7474 N   0  0  0  0  0  0  0  0  0  0  0  0
   -2.1233   -6.7714   -2.2116 N   0  0  0  0  0  0  0  0  0  0  0  0
   -0.1260   -4.6448   -2.3083 C   0  0  0  0  0  0  0  0  0  0  0  0
    0.9103   -4.3909   -3.2205 C   0  0  0  0  0  0  0  0  0  0  0  0
    2.2408   -4.6062   -2.8489 C   0  0  0  0  0  0  0  0  0  0  0  0
    2.5432   -5.0685   -1.5646 C   0  0  0  0  0  0  0  0  0  0  0  0
    1.5154   -5.3139   -0.6493 C   0  0  0  0  0  0  0  0  0  0  0  0
    0.1835   -5.0998   -1.0173 C   0  0  0  0  0  0  0  0  0  0  0  0
   -1.7585   -4.7077   -2.8736 H   0  0  0  0  0  0  0  0  0  0  0  0
   -0.7247   -3.2881   -3.3211 H   0  0  0  0  0  0  0  0  0  0  0  0
   -0.4389   -4.8950   -4.0901 H   0  0  0  0  0  0  0  0  0  0  0  0
    0.2473   -5.8572   -1.9082 H   0  0  0  0  0  0  0  0  0  0  0  0
    1.2743   -4.4406   -2.3503 H   0  0  0  0  0  0  0  0  0  0  0  0
   -1.1291   -4.4140   -0.4134 H   0  0  0  0  0  0  0  0  0  0  0  0
    0.6120   -4.3656    0.0651 H   0  0  0  0  0  0  0  0  0  0  0  0
   -1.1189   -2.1523   -0.5970 H   0  0  0  0  0  0  0  0  0  0  0  0
    0.6172   -2.0915   -0.1686 H   0  0  0  0  0  0  0  0  0  0  0  0
    0.7212   -1.1133   -2.2821 H   0  0  0  0  0  0  0  0  0  0  0  0
    0.8810   -2.8189   -2.7737 H   0  0  0  0  0  0  0  0  0  0  0  0
   -0.7286   -1.7645   -4.2542 H   0  0  0  0  0  0  0  0  0  0  0  0
   -1.6195   -1.0259   -2.9187 H   0  0  0  0  0  0  0  0  0  0  0  0
   -6.2329   -4.5290   -3.6883 H   0  0  0  0  0  0  0  0  0  0  0  0
   -5.8513   -2.8099   -4.0657 H   0  0  0  0  0  0  0  0  0  0  0  0
   -2.8543   -7.5147   -2.1548 H   0  0  0  0  0  0  0  0  0  0  0  0
   -1.1401   -7.0359   -1.9834 H   0  0  0  0  0  0  0  0  0  0  0  0
    0.6854   -4.0328   -4.2178 H   0  0  0  0  0  0  0  0  0  0  0  0
    3.0375   -4.4140   -3.5559 H   0  0  0  0  0  0  0  0  0  0  0  0
    3.5737   -5.2345   -1.2782 H   0  0  0  0  0  0  0  0  0  0  0  0
    1.7510   -5.6683    0.3458 H   0  0  0  0  0  0  0  0  0  0  0  0
   -0.6056   -5.2884   -0.2997 H   0  0  0  0  0  0  0  0  0  0  0  0
  1  2  4  0
  2  3  4  0
  3  4  4  0
  1  5  4  0
  6  7  1  0
  7  8  1  0
  8  9  1  0
  9 10  1  0
 10 11  1  0
  1 11  1  0
  5 12  4  0
  4 12  4  0
 12 13  1  0
  3 14  1  0
  2 15  1  0
 15 16  4  0
 16 17  4  0
 17 18  4  0
 18 19  4  0
 15 20  4  0
 19 20  4  0
  6 21  1  0
  6 22  1  0
  6 23  1  0
  7 24  1  0
  7 25  1  0
  8 26  1  0
  8 27  1  0
  9 28  1  0
  9 29  1  0
 10 30  1  0
 10 31  1  0
 11 32  1  0
 11 33  1  0
 13 34  1  0
 13 35  1  0
 14 36  1  0
 14 37  1  0
 16 38  1  0
 17 39  1  0
 18 40  1  0
 19 41  1  0
 20 42  1  0
M  END
