7RH3_59O_A_302
     RDKit          3D

 34 36  0  0  0  0  0  0  0  0999 V2000
   10.3427   -8.7550    1.1582 C   0  0  0  0  0  0  0  0  0  0  0  0
   15.2598   -7.9839   -1.6500 C   0  0  0  0  0  0  0  0  0  0  0  0
   21.4517   -5.9044    0.0860 O   0  0  0  0  0  0  0  0  0  0  0  0
   20.2641   -5.4465   -0.4782 C   0  0  0  0  0  0  0  0  0  0  0  0
   22.0364   -9.5330   -2.5599 C   0  0  0  0  0  0  0  0  0  0  0  0
   18.3787   -7.0881   -0.5207 C   0  0  2  0  0  0  0  0  0  0  0  0
   17.6645   -7.9514   -1.5571 C   0  0  1  0  0  0  0  0  0  0  0  0
   19.9804   -8.6466   -2.1480 C   0  0  1  0  0  0  0  0  0  0  0  0
   18.5790   -9.0751   -1.9321 C   0  0  1  0  0  0  0  0  0  0  0  0
   19.5796   -6.5188   -1.2876 C   0  0  2  0  0  0  0  0  0  0  0  0
   20.4420   -7.5822   -1.4259 O   0  0  0  0  0  0  0  0  0  0  0  0
   20.8609   -9.7176   -1.8356 O   0  0  0  0  0  0  0  0  0  0  0  0
   18.4566  -10.1794   -1.0630 O   0  0  0  0  0  0  0  0  0  0  0  0
   17.6039  -11.2409   -1.3531 C   0  0  0  0  0  0  0  0  0  0  0  0
   16.4280   -8.4173   -1.0492 O   0  0  0  0  0  0  0  0  0  0  0  0
   18.8979   -7.9578    0.4291 O   0  0  0  0  0  0  0  0  0  0  0  0
   15.2408   -7.4262   -2.7773 O   0  0  0  0  0  0  0  0  0  0  0  0
   17.3023  -11.3859   -2.5561 O   0  0  0  0  0  0  0  0  0  0  0  0
   17.1494  -12.0690   -0.2541 C   0  0  0  0  0  0  0  0  0  0  0  0
   13.9836   -8.1835   -0.9378 C   0  0  0  0  0  0  0  0  0  0  0  0
   12.7851   -8.2100   -1.6180 C   0  0  0  0  0  0  0  0  0  0  0  0
   13.9650   -8.3465    0.4322 C   0  0  0  0  0  0  0  0  0  0  0  0
   11.6028   -8.3956   -0.9340 C   0  0  0  0  0  0  0  0  0  0  0  0
   12.7992   -8.5348    1.1519 C   0  0  0  0  0  0  0  0  0  0  0  0
   11.6223   -8.5569    0.4488 C   0  0  0  0  0  0  0  0  0  0  0  0
   17.6606  -11.8188    1.0209 C   0  0  0  0  0  0  0  0  0  0  0  0
   16.2135  -13.0663   -0.3709 C   0  0  0  0  0  0  0  0  0  0  0  0
   17.2823  -12.5026    2.1387 C   0  0  0  0  0  0  0  0  0  0  0  0
   15.8336  -13.7611    0.7871 C   0  0  0  0  0  0  0  0  0  0  0  0
   15.5896  -13.4622   -1.5623 N   0  0  0  0  0  0  0  0  0  0  0  0
   16.3448  -13.5005    2.0248 C   0  0  0  0  0  0  0  0  0  0  0  0
   15.7940  -14.4366    3.4069 Cl  0  0  0  0  0  0  0  0  0  0  0  0
   14.6702  -14.3416   -1.4657 O   0  0  0  0  0  0  0  0  0  0  0  0
   15.8268  -13.0253   -2.8271 O   0  0  0  0  0  0  0  0  0  0  0  0
  4  3  1  1
  6  7  1  0
  8  9  1  0
  7  9  1  0
  6 10  1  0
 10  4  1  0
  8 11  1  0
 10 11  1  1
  5 12  1  1
  8 12  1  1
  9 13  1  1
 13 14  1  0
  2 15  1  0
  7 15  1  1
  6 16  1  1
  2 17  2  0
 14 18  2  0
 14 19  1  0
  2 20  1  0
 20 21  2  0
 20 22  1  0
 21 23  1  0
 22 24  2  0
 23 25  2  0
  1 25  1  6
 24 25  1  0
 19 26  2  0
 19 27  1  0
 26 28  1  0
 27 29  2  0
 27 30  1  0
 28 31  2  0
 29 31  1  0
 31 32  1  0
 30 33  2  0
 30 34  1  0
M  CHG  2  30   1  34  -1
M  END
$$$$
