
     RDKit          3D

 13 15  0  0  0  0  0  0  0  0999 V2000
    1.9617    4.3204   10.7472 C   0  0  0  0  0  0  0  0  0  0  0  0
    2.6606    3.4171    9.9269 C   0  0  0  0  0  0  0  0  0  0  0  0
    2.1296    3.0432    8.7073 C   0  0  0  0  0  0  0  0  0  0  0  0
    3.8623    3.8818   12.0241 C   0  0  0  0  0  0  0  0  0  0  0  0
    2.5456    5.2772   13.0371 C   0  0  0  0  0  0  0  0  0  0  0  0
    4.4483    4.1700   13.1538 N   0  0  0  0  0  0  0  0  0  0  0  0
    3.6012    5.0684   13.8067 N   0  0  0  0  0  0  0  0  0  0  0  0
    0.7424    4.8725   10.3989 C   0  0  0  0  0  0  0  0  0  0  0  0
    2.6825    4.5435   11.9085 N   0  0  0  0  0  0  0  0  0  0  0  0
    0.3864    3.2124    7.1309 O   0  0  0  0  0  0  0  0  0  0  0  0
    0.8996    3.5901    8.3382 C   0  0  0  0  0  0  0  0  0  0  0  0
    0.2075    4.4928    9.1648 C   0  0  0  0  0  0  0  0  0  0  0  0
    4.2149    2.8792   10.6596 S   0  0  0  0  0  0  0  0  0  0  0  0
  1  2  4  0
  2  3  4  0
  4  6  4  0
  5  7  4  0
  6  7  4  0
  1  8  4  0
  5  9  4  0
  4  9  4  0
  1  9  4  0
  3 11  4  0
 10 11  1  0
  8 12  4  0
 11 12  4  0
  4 13  4  0
  2 13  4  0
M  END
