
     RDKit          3D

 25 27  0  0  0  0  0  0  0  0999 V2000
  -32.2316    2.3602    0.5015 C   0  0  0  0  0  0  0  0  0  0  0  0
  -30.8632    2.6930    0.4971 C   0  0  0  0  0  0  0  0  0  0  0  0
  -30.4708    3.8724    1.1594 C   0  0  0  0  0  0  0  0  0  0  0  0
  -31.4116    4.6983    1.7806 C   0  0  0  0  0  0  0  0  0  0  0  0
  -32.7638    4.3669    1.7496 C   0  0  0  0  0  0  0  0  0  0  0  0
  -33.1762    3.2000    1.1095 C   0  0  0  0  0  0  0  0  0  0  0  0
  -28.1043   -1.3744    3.2095 C   0  0  0  0  0  0  0  0  0  0  0  0
  -26.8672    5.2173    1.4776 C   0  0  0  0  0  0  0  0  0  0  0  0
  -27.6612    4.1287    1.6981 C   0  0  0  0  0  0  0  0  0  0  0  0
  -27.1078    2.9347    1.3071 C   0  0  0  0  0  0  0  0  0  0  0  0
  -25.2034    3.9759    0.5869 C   0  0  0  0  0  0  0  0  0  0  0  0
  -27.8361    1.6791    1.5174 C   0  0  0  0  0  0  0  0  0  0  0  0
  -29.0095    1.1960    0.8451 C   0  0  0  0  0  0  0  0  0  0  0  0
  -29.2231   -0.0567    1.3944 C   0  0  0  0  0  0  0  0  0  0  0  0
  -29.8173    1.8659   -0.2203 C   0  0  0  0  0  0  0  0  0  0  0  0
  -32.7521    1.1265   -0.1161 C   0  0  0  0  0  0  0  0  0  0  0  0
  -31.6529   -0.9393   -0.1977 C   0  0  0  0  0  0  0  0  0  0  0  0
  -25.6405    5.1807    0.9347 N   0  0  0  0  0  0  0  0  0  0  0  0
  -25.8778    2.8397    0.7543 N   0  0  0  0  0  0  0  0  0  0  0  0
  -28.2686   -0.2316    2.3445 N   0  0  0  0  0  0  0  0  0  0  0  0
  -27.4154    0.7957    2.4429 N   0  0  0  0  0  0  0  0  0  0  0  0
  -23.9459    3.8921    0.0277 N   0  0  0  0  0  0  0  0  0  0  0  0
  -31.6978    0.4300   -0.6020 O   0  0  0  0  0  0  0  0  0  0  0  0
  -33.9209    0.7846   -0.0871 O   0  0  0  0  0  0  0  0  0  0  0  0
  -27.3992    6.7920    1.9073 Cl  0  0  0  0  0  0  0  0  0  0  0  0
  1  2  4  0
  2  3  4  0
  3  4  4  0
  4  5  4  0
  1  6  4  0
  5  6  4  0
  8  9  4  0
  9 10  4  0
 10 12  1  0
 12 13  4  0
 13 14  4  0
 13 15  1  0
  2 15  1  0
  1 16  1  0
 11 18  4  0
  8 18  4  0
 11 19  4  0
 10 19  4  0
 14 20  4  0
  7 20  1  0
 12 21  4  0
 20 21  4  0
 11 22  1  0
 17 23  1  0
 16 23  1  0
 16 24  2  0
  8 25  1  0
M  END
