7ZL5_IWE_AAA_303
     RDKit          3D

 34 36  0  0  0  0  0  0  0  0999 V2000
    7.3116   36.4681   46.1055 N   0  0  0  0  0  0  0  0  0  0  0  0
    7.8797   33.8804   50.5811 C   0  0  0  0  0  0  0  0  0  0  0  0
    7.0816   34.9838   50.2667 C   0  0  0  0  0  0  0  0  0  0  0  0
    7.1998   35.6353   49.0268 C   0  0  0  0  0  0  0  0  0  0  0  0
    8.1285   35.1464   48.0781 C   0  0  0  0  0  0  0  0  0  0  0  0
    8.2488   35.7275   46.7221 C   0  0  0  0  0  0  0  0  0  0  0  0
    8.9432   34.0521   48.4104 C   0  0  0  0  0  0  0  0  0  0  0  0
    5.2672   37.2095   49.5511 C   0  0  2  0  0  0  0  0  0  0  0  0
   10.0237   31.1626   48.7898 O   0  0  0  0  0  0  0  0  0  0  0  0
    5.1469   38.6988   49.6240 C   0  0  0  0  0  0  0  0  0  0  0  0
    5.5168   41.1711   49.7346 C   0  0  0  0  0  0  0  0  0  0  0  0
    4.2184   40.8190   49.3877 C   0  0  0  0  0  0  0  0  0  0  0  0
    8.9730   36.1509   44.7744 N   0  0  0  0  0  0  0  0  0  0  0  0
    4.0114   39.4364   49.3163 C   0  0  0  0  0  0  0  0  0  0  0  0
    7.7846   36.7224   44.8992 N   0  0  0  0  0  0  0  0  0  0  0  0
    7.6793   33.1435   52.1677 Cl  0  0  0  0  0  0  0  0  0  0  0  0
    9.2884   35.5132   45.8932 N   0  0  0  0  0  0  0  0  0  0  0  0
    8.8228   33.4076   49.6492 C   0  0  0  0  0  0  0  0  0  0  0  0
    9.8710   32.0271   50.0101 S   0  0  2  0  0  6  0  0  0  0  0  0
   11.4332   32.5873   50.4962 N   0  0  0  0  0  0  0  0  0  0  0  0
    9.2655   31.1957   51.1059 O   0  0  0  0  0  0  0  0  0  0  0  0
    6.4431   36.8325   48.7671 N   0  0  0  0  0  0  0  0  0  0  0  0
    6.4088   39.7609   49.9483 S   0  0  0  0  0  0  0  0  0  0  0  0
    6.3745   36.7623   46.4586 H   0  0  0  0  0  0  0  0  0  0  0  0
    6.3877   35.3512   51.0110 H   0  0  0  0  0  0  0  0  0  0  0  0
    9.6609   33.6857   47.6868 H   0  0  0  0  0  0  0  0  0  0  0  0
    4.3504   36.8004   49.0737 H   0  0  0  0  0  0  0  0  0  0  0  0
    5.3526   36.7909   50.5761 H   0  0  0  0  0  0  0  0  0  0  0  0
    5.8908   42.1808   49.8369 H   0  0  0  0  0  0  0  0  0  0  0  0
    3.4434   41.5451   49.1815 H   0  0  0  0  0  0  0  0  0  0  0  0
    3.0650   38.9907   49.0388 H   0  0  0  0  0  0  0  0  0  0  0  0
   11.7482   31.9708   51.2785 H   0  0  0  0  0  0  0  0  0  0  0  0
   12.0863   32.4199   49.6991 H   0  0  0  0  0  0  0  0  0  0  0  0
    6.7678   37.4771   48.0104 H   0  0  0  0  0  0  0  0  0  0  0  0
  2  3  2  0
  3  4  1  0
  4  5  2  0
  5  6  1  0
  1  6  1  0
  5  7  1  0
  8 10  1  0
 11 12  2  0
 12 14  1  0
 10 14  2  0
  1 15  1  0
 13 15  2  0
  2 16  1  0
  6 17  2  0
 13 17  1  0
  2 18  1  0
  7 18  2  0
  9 19  2  0
 18 19  1  0
 19 20  1  1
 19 21  2  0
  4 22  1  0
  8 22  1  0
 10 23  1  0
 11 23  1  0
  1 24  1  0
  3 25  1  0
  7 26  1  0
  8 27  1  6
  8 28  1  0
 11 29  1  0
 12 30  1  0
 14 31  1  0
 20 32  1  0
 20 33  1  0
 22 34  1  0
M  END
