7UXS_OJC_B_501
     RDKit          3D

 35 39  0  0  0  0  0  0  0  0999 V2000
  -11.1916   18.7857  -22.6198 N   0  0  0  0  0  0  0  0  0  0  0  0
  -12.0575   19.7987  -22.4448 C   0  0  0  0  0  0  0  0  0  0  0  0
  -13.2081   22.4326  -27.3381 O   0  0  0  0  0  0  0  0  0  0  0  0
  -10.7644   18.4612  -23.8633 C   0  0  0  0  0  0  0  0  0  0  0  0
  -11.2708   19.2253  -24.8958 C   0  0  0  0  0  0  0  0  0  0  0  0
  -12.1529   20.2578  -24.7225 C   0  0  0  0  0  0  0  0  0  0  0  0
  -12.5472   29.2407  -27.2815 C   0  0  0  0  0  0  0  0  0  0  0  0
  -13.4637   28.1310  -26.9700 C   0  0  2  0  0  0  0  0  0  0  0  0
  -14.7910   28.5020  -26.3678 C   0  0  2  0  0  0  0  0  0  0  0  0
  -15.1298   27.2461  -25.5508 C   0  0  2  0  0  0  0  0  0  0  0  0
  -14.0511   26.3225  -26.0783 C   0  0  1  0  0  0  0  0  0  0  0  0
  -11.7586   20.1020  -26.8192 C   0  0  0  0  0  0  0  0  0  0  0  0
  -13.3607   21.9115  -26.0691 C   0  0  2  0  0  0  0  0  0  0  0  0
  -13.1588   23.0022  -25.0824 C   0  0  1  0  0  0  0  0  0  0  0  0
  -13.1031   24.2683  -25.9167 C   0  0  1  0  0  0  0  0  0  0  0  0
  -13.4930   23.7941  -27.2715 C   0  0  1  0  0  0  0  0  0  0  0  0
  -12.6178   24.4536  -28.3303 C   0  0  0  0  0  0  0  0  0  0  0  0
  -12.5446   20.5371  -23.4613 N   0  0  0  0  0  0  0  0  0  0  0  0
  -12.4585   20.8048  -25.9124 N   0  0  0  0  0  0  0  0  0  0  0  0
  -11.0311   19.1390  -26.2273 N   0  0  0  0  0  0  0  0  0  0  0  0
   -9.8494   17.3987  -24.1000 N   0  0  0  0  0  0  0  0  0  0  0  0
  -13.3200   24.7780  -29.4814 O   0  0  0  0  0  0  0  0  0  0  0  0
  -16.3428   26.6985  -25.8899 O   0  0  0  0  0  0  0  0  0  0  0  0
  -15.7539   28.5476  -27.3792 O   0  0  0  0  0  0  0  0  0  0  0  0
  -14.2839   23.0301  -24.2274 O   0  0  0  0  0  0  0  0  0  0  0  0
  -13.4424   26.9279  -31.0270 O   0  0  0  0  0  0  0  0  0  0  0  0
  -11.4864   25.3204  -31.5197 O   0  0  0  0  0  0  0  0  0  0  0  0
  -11.5954   26.8519  -29.1830 O   0  0  0  0  0  0  0  0  0  0  0  0
  -11.6998   28.7512  -30.9721 O   0  0  0  0  0  0  0  0  0  0  0  0
   -9.8491   28.9160  -29.1995 O   0  0  0  0  0  0  0  0  0  0  0  0
  -12.5409   29.4475  -28.6499 O   0  0  0  0  0  0  0  0  0  0  0  0
  -12.9633   27.1961  -26.0332 O   0  0  0  0  0  0  0  0  0  0  0  0
  -13.9169   25.1890  -25.3235 O   0  0  0  0  0  0  0  0  0  0  0  0
  -12.4755   25.9820  -30.3330 P   0  0  2  0  0  5  0  0  0  0  0  0
  -11.4628   28.4783  -29.4958 P   0  0  2  0  0  5  0  0  0  0  0  0
  1  2  2  0
  1  4  1  0
  4  5  2  0
  5  6  1  0
  8  7  1  0
  8  9  1  0
  9 10  1  0
 10 11  1  0
  3 13  1  0
 13 14  1  0
 14 15  1  0
 16  3  1  1
 15 16  1  0
 16 17  1  0
  2 18  1  0
  6 18  2  0
  6 19  1  0
 12 19  1  0
 13 19  1  1
  5 20  1  0
 12 20  2  0
  4 21  1  0
 17 22  1  1
 10 23  1  6
  9 24  1  6
 14 25  1  1
  7 31  1  6
 11 32  1  0
  8 32  1  1
 15 33  1  1
 11 33  1  1
 28 34  1  0
 22 34  1  0
 34 27  1  6
 26 34  2  0
 35 30  1  1
 28 35  1  0
 31 35  1  0
 29 35  2  0
M  END
$$$$
