7ED2_A3P_B_301
     RDKit          3D

 27 29  0  0  0  0  0  0  0  0999 V2000
  -16.5010  -25.5077   13.1723 P   0  0  1  0  0  0  0  0  0  0  0  0
  -15.4659  -26.5980   13.2345 O   0  0  0  0  0  0  0  0  0  0  0  0
  -16.5862  -25.0155   11.5559 O   0  0  0  0  0  0  0  0  0  0  0  0
  -17.9773  -26.1941   13.6000 O   0  0  0  0  0  0  0  0  0  0  0  0
  -19.9668  -21.7163   12.2384 P   0  0  2  0  0  0  0  0  0  0  0  0
  -21.1054  -22.6097   12.6295 O   0  0  0  0  0  0  0  0  0  0  0  0
  -20.5952  -20.2870   11.5821 O   0  0  0  0  0  0  0  0  0  0  0  0
  -19.0622  -22.4867   11.0143 O   0  0  0  0  0  0  0  0  0  0  0  0
  -18.9829  -21.4032   13.5800 O   0  0  0  0  0  0  0  0  0  0  0  0
  -17.7380  -21.0455   13.1268 C   0  0  0  0  0  0  0  0  0  0  0  0
  -16.6334  -21.9953   13.4801 C   0  0  1  0  0  0  0  0  0  0  0  0
  -15.7496  -21.3186   14.3043 O   0  0  0  0  0  0  0  0  0  0  0  0
  -17.1051  -23.2228   14.2168 C   0  0  1  0  0  0  0  0  0  0  0  0
  -16.0997  -24.1660   14.0791 O   0  0  0  0  0  0  0  0  0  0  0  0
  -16.9691  -22.6942   15.6522 C   0  0  1  0  0  0  0  0  0  0  0  0
  -16.8195  -23.7086   16.5767 O   0  0  0  0  0  0  0  0  0  0  0  0
  -15.5922  -22.0433   15.4591 C   0  0  2  0  0  0  0  0  0  0  0  0
  -15.2175  -21.2615   16.5972 N   0  0  0  0  0  0  0  0  0  0  0  0
  -15.7326  -20.0518   16.8823 C   0  0  0  0  0  0  0  0  0  0  0  0
  -15.1548  -19.6110   18.0180 N   0  0  0  0  0  0  0  0  0  0  0  0
  -14.2739  -20.5318   18.4601 C   0  0  0  0  0  0  0  0  0  0  0  0
  -13.4389  -20.5899   19.5385 C   0  0  0  0  0  0  0  0  0  0  0  0
  -13.4143  -19.4935   20.4594 N   0  0  0  0  0  0  0  0  0  0  0  0
  -12.6728  -21.6823   19.6868 N   0  0  0  0  0  0  0  0  0  0  0  0
  -12.7308  -22.6918   18.7913 C   0  0  0  0  0  0  0  0  0  0  0  0
  -13.5428  -22.6456   17.7340 N   0  0  0  0  0  0  0  0  0  0  0  0
  -14.3294  -21.5659   17.5479 C   0  0  0  0  0  0  0  0  0  0  0  0
  1  2  2  0
  1  3  1  6
  1  4  1  0
  5  6  2  0
  5  7  1  6
  5  8  1  0
  5  9  1  0
  9 10  1  0
 11 10  1  1
 11 12  1  0
 11 13  1  0
  1 14  1  0
 13 14  1  1
 13 15  1  0
 15 16  1  1
 12 17  1  0
 15 17  1  0
 17 18  1  1
 18 19  1  0
 19 20  2  0
 20 21  1  0
 21 22  2  0
 22 23  1  0
 22 24  1  0
 24 25  2  0
 25 26  1  0
 18 27  1  0
 21 27  1  0
 26 27  2  0
M  END
$$$$
