
     RDKit          3D

 22 22  0  0  0  0  0  0  0  0999 V2000
  -39.5562   -7.1001   15.0197 C   0  0  0  0  0  0  0  0  0  0  0  0
  -38.9264   -5.8619   14.8412 C   0  0  0  0  0  0  0  0  0  0  0  0
  -39.5998   -4.6708   15.1166 C   0  0  0  0  0  0  0  0  0  0  0  0
  -40.9216   -4.7195   15.5606 C   0  0  0  0  0  0  0  0  0  0  0  0
  -41.5583   -5.9463   15.7583 C   0  0  0  0  0  0  0  0  0  0  0  0
  -40.8736   -7.1360   15.4851 C   0  0  0  0  0  0  0  0  0  0  0  0
  -38.7754   -8.1766   14.7099 O   0  0  0  0  0  0  0  0  0  0  0  0
  -39.4236   -9.3944   14.3873 C   0  0  0  0  0  0  0  0  0  0  0  0
  -40.0539   -9.9116   15.4639 F   0  0  0  0  0  0  0  0  0  0  0  0
  -40.3508   -9.1537   13.4340 F   0  0  0  0  0  0  0  0  0  0  0  0
  -38.5470  -10.2988   13.9010 F   0  0  0  0  0  0  0  0  0  0  0  0
  -41.7830   -3.1994   15.8861 S   0  0  0  0  0  6  0  0  0  0  0  0
  -40.7932   -2.0548   15.1693 N   0  0  0  0  0  0  0  0  0  0  0  0
  -41.3750   -1.0482   14.2715 C   0  0  0  0  0  0  0  0  0  0  0  0
  -41.5193   -1.6173   12.8597 C   0  0  0  0  0  0  0  0  0  0  0  0
  -41.3585   -0.5767   11.9034 O   0  0  0  0  0  0  0  0  0  0  0  0
  -41.7898   -0.8252   10.3863 P   0  0  0  0  0  5  0  0  0  0  0  0
  -40.9353    0.2303    9.5513 O   0  0  0  0  0  0  0  0  0  0  0  0
  -43.2443   -0.7732   10.0828 O   0  0  0  0  0  0  0  0  0  0  0  0
  -41.1114   -2.2140    9.9731 O   0  0  0  0  0  0  0  0  0  0  0  0
  -43.0308   -3.2203   15.1550 O   0  0  0  0  0  0  0  0  0  0  0  0
  -41.7311   -2.9720   17.3129 O   0  0  0  0  0  0  0  0  0  0  0  0
  1  2  4  0
  2  3  4  0
  3  4  4  0
  4  5  4  0
  1  6  4  0
  5  6  4  0
  1  7  1  0
  7  8  1  0
  8  9  1  0
  8 10  1  0
  8 11  1  0
  4 12  1  0
 12 13  1  0
 13 14  1  0
 14 15  1  0
 15 16  1  0
 16 17  1  0
 17 18  1  0
 17 19  2  0
 17 20  1  0
 12 21  2  0
 12 22  2  0
M  END
