@<TRIPOS>MOLECULE
1OYT_FSN_H_501
 54 58 0 0 0
SMALL
GASTEIGER

@<TRIPOS>ATOM
      1 O          16.6950  -12.8160   22.7290 O.2     1  UNL1       -0.2748
      2 C          17.4090  -12.5450   21.7800 C.2     1  UNL1        0.2278
      3 N          18.5310  -13.3290   21.4300 N.am    1  UNL1       -0.2372
      4 C          18.8670  -14.5430   22.1730 C.3     1  UNL1        0.0474
      5 C          19.7880  -14.2110   23.3150 C.ar    1  UNL1       -0.0294
      6 C          19.2510  -14.0800   24.6100 C.ar    1  UNL1       -0.0543
      7 C          20.1060  -13.8060   25.6770 C.ar    1  UNL1       -0.0261
      8 C          21.4750  -13.6670   25.4130 C.ar    1  UNL1        0.1234
      9 F          22.2470  -13.4240   26.4870 F       1  UNL1       -0.2055
     10 C          22.0580  -13.7740   24.1420 C.ar    1  UNL1       -0.0261
     11 C          21.1740  -14.0520   23.0690 C.ar    1  UNL1       -0.0543
     12 C          19.0640  -12.9060   20.1780 C.2     1  UNL1        0.2275
     13 O          20.0420  -13.3920   19.6320 O.2     1  UNL1       -0.2748
     14 C          18.2450  -11.8120   19.6630 C.3     1  UNL1        0.0645
     15 C          17.2170  -12.1980   18.6000 C.3     1  UNL1        0.0229
     16 N          15.7990  -12.4400   19.1400 N.3     1  UNL1       -0.2910
     17 C          14.9690  -11.9970   17.9830 C.3     1  UNL1       -0.0002
     18 C          15.8910  -12.1930   16.7360 C.3     1  UNL1       -0.0387
     19 C          17.2510  -11.6720   17.2230 C.3     1  UNL1       -0.0354
     20 C          15.8630  -11.3370   20.1940 C.3     1  UNL1        0.0477
     21 C          14.6700  -11.2040   21.0920 C.ar    1  UNL1       -0.0295
     22 C          13.9280  -12.3500   21.3610 C.ar    1  UNL1       -0.0562
     23 C          12.8510  -12.2910   22.2350 C.ar    1  UNL1       -0.0467
     24 C          12.5240  -11.0440   22.8370 C.ar    1  UNL1        0.0608
     25 C          13.2700   -9.8900   22.5730 C.ar    1  UNL1       -0.0467
     26 C          14.3560   -9.9610   21.6950 C.ar    1  UNL1       -0.0562
     27 C          11.3830  -11.0010   23.7370 C.2     1  UNL1        0.2662
     28 N          10.5520  -12.0640   23.8870 N.2     1  UNL1       -0.2884
     29 N          11.0790   -9.9100   24.4850 N.pl3   1  UNL1       -0.2497
     30 C          17.2470  -11.4430   20.8070 C.3     1  UNL1        0.0683
     31 H          19.3513  -15.2365   21.5177 H       1  UNL1        0.0519
     32 H          17.9690  -14.9760   22.5615 H       1  UNL1        0.0519
     33 H          18.2366  -14.1855   24.7677 H       1  UNL1        0.0622
     34 H          19.7397  -13.7081   26.6368 H       1  UNL1        0.0646
     35 H          23.0729  -13.6570   23.9960 H       1  UNL1        0.0646
     36 H          21.5405  -14.1386   22.1081 H       1  UNL1        0.0622
     37 H          18.9492  -11.0939   19.2978 H       1  UNL1        0.0418
     38 H          17.6861  -13.1309   18.3665 H       1  UNL1        0.0470
     39 H          14.6913  -10.9691   18.0893 H       1  UNL1        0.0427
     40 H          14.0568  -12.5505   17.9033 H       1  UNL1        0.0427
     41 H          15.5369  -11.6223   15.9030 H       1  UNL1        0.0278
     42 H          15.9266  -13.2064   16.3944 H       1  UNL1        0.0278
     43 H          18.0630  -12.0792   16.6575 H       1  UNL1        0.0281
     44 H          17.3980  -10.6157   17.1364 H       1  UNL1        0.0281
     45 H          15.7601  -10.3638   19.7613 H       1  UNL1        0.0520
     46 H          14.1784  -13.2441   20.9106 H       1  UNL1        0.0621
     47 H          12.2975  -13.1365   22.4443 H       1  UNL1        0.0626
     48 H          13.0210   -8.9948   23.0221 H       1  UNL1        0.0626
     49 H          14.9198   -9.1214   21.4895 H       1  UNL1        0.0621
     50 H          10.7119  -12.8899   23.3755 H       1  UNL1        0.3009
     51 H           9.7894  -12.0090   24.5073 H       1  UNL1        0.3009
     52 H          11.6386   -9.1020   24.4272 H       1  UNL1        0.2883
     53 H          10.2989   -9.9266   25.0854 H       1  UNL1        0.2883
     54 H          17.4151  -10.5073   21.2981 H       1  UNL1        0.0421
@<TRIPOS>UNITY_ATOM_ATTR
28 1
charge 1
@<TRIPOS>BOND
     1     1     2    2
     2     2     3   am
     3     3     4    1
     4     4     5    1
     5     5     6   ar
     6     6     7   ar
     7     7     8   ar
     8     8     9    1
     9     8    10   ar
    10     5    11   ar
    11    10    11   ar
    12     3    12   am
    13    12    13    2
    14    14    12    1
    15    14    15    1
    16    15    16    1
    17    16    17    1
    18    17    18    1
    19    15    19    1
    20    18    19    1
    21    16    20    1
    22    20    21    1
    23    21    22   ar
    24    22    23   ar
    25    23    24   ar
    26    24    25   ar
    27    21    26   ar
    28    25    26   ar
    29    24    27    1
    30    27    28    2
    31    27    29    1
    32    30     2    1
    33    14    30    1
    34    20    30    1
    35     4    31    1
    36     4    32    1
    37     6    33    1
    38     7    34    1
    39    10    35    1
    40    11    36    1
    41    14    37    1
    42    15    38    1
    43    17    39    1
    44    17    40    1
    45    18    41    1
    46    18    42    1
    47    19    43    1
    48    19    44    1
    49    20    45    1
    50    22    46    1
    51    23    47    1
    52    25    48    1
    53    26    49    1
    54    28    50    1
    55    28    51    1
    56    29    52    1
    57    29    53    1
    58    30    54    1
