1OYT_FSN_H_501
     RDKit          3D

 30 34  0  0  0  0  0  0  0  0999 V2000
   16.6950  -12.8160   22.7290 O   0  0  0  0  0  0  0  0  0  0  0  0
   17.4090  -12.5450   21.7800 C   0  0  0  0  0  0  0  0  0  0  0  0
   18.5310  -13.3290   21.4300 N   0  0  0  0  0  0  0  0  0  0  0  0
   18.8670  -14.5430   22.1730 C   0  0  0  0  0  0  0  0  0  0  0  0
   19.7880  -14.2110   23.3150 C   0  0  0  0  0  0  0  0  0  0  0  0
   19.2510  -14.0800   24.6100 C   0  0  0  0  0  0  0  0  0  0  0  0
   20.1060  -13.8060   25.6770 C   0  0  0  0  0  0  0  0  0  0  0  0
   21.4750  -13.6670   25.4130 C   0  0  0  0  0  0  0  0  0  0  0  0
   22.2470  -13.4240   26.4870 F   0  0  0  0  0  0  0  0  0  0  0  0
   22.0580  -13.7740   24.1420 C   0  0  0  0  0  0  0  0  0  0  0  0
   21.1740  -14.0520   23.0690 C   0  0  0  0  0  0  0  0  0  0  0  0
   19.0640  -12.9060   20.1780 C   0  0  0  0  0  0  0  0  0  0  0  0
   20.0420  -13.3920   19.6320 O   0  0  0  0  0  0  0  0  0  0  0  0
   18.2450  -11.8120   19.6630 C   0  0  1  0  0  0  0  0  0  0  0  0
   17.2170  -12.1980   18.6000 C   0  0  1  0  0  0  0  0  0  0  0  0
   15.7990  -12.4400   19.1400 N   0  0  0  0  0  0  0  0  0  0  0  0
   14.9690  -11.9970   17.9830 C   0  0  0  0  0  0  0  0  0  0  0  0
   15.8910  -12.1930   16.7360 C   0  0  0  0  0  0  0  0  0  0  0  0
   17.2510  -11.6720   17.2230 C   0  0  0  0  0  0  0  0  0  0  0  0
   15.8630  -11.3370   20.1940 C   0  0  1  0  0  0  0  0  0  0  0  0
   14.6700  -11.2040   21.0920 C   0  0  0  0  0  0  0  0  0  0  0  0
   13.9280  -12.3500   21.3610 C   0  0  0  0  0  0  0  0  0  0  0  0
   12.8510  -12.2910   22.2350 C   0  0  0  0  0  0  0  0  0  0  0  0
   12.5240  -11.0440   22.8370 C   0  0  0  0  0  0  0  0  0  0  0  0
   13.2700   -9.8900   22.5730 C   0  0  0  0  0  0  0  0  0  0  0  0
   14.3560   -9.9610   21.6950 C   0  0  0  0  0  0  0  0  0  0  0  0
   11.3830  -11.0010   23.7370 C   0  0  0  0  0  0  0  0  0  0  0  0
   10.5520  -12.0640   23.8870 N   0  0  0  0  0  0  0  0  0  0  0  0
   11.0790   -9.9100   24.4850 N   0  0  0  0  0  0  0  0  0  0  0  0
   17.2470  -11.4430   20.8070 C   0  0  1  0  0  0  0  0  0  0  0  0
  1  2  2  0
  2  3  1  0
  3  4  1  0
  4  5  1  0
  5  6  2  0
  6  7  1  0
  7  8  2  0
  8  9  1  0
  8 10  1  0
  5 11  1  0
 10 11  2  0
  3 12  1  0
 12 13  2  0
 14 12  1  1
 14 15  1  0
 15 16  1  0
 16 17  1  0
 17 18  1  0
 15 19  1  6
 18 19  1  0
 16 20  1  0
 20 21  1  1
 21 22  2  0
 22 23  1  0
 23 24  2  0
 24 25  1  0
 21 26  1  0
 25 26  2  0
 24 27  1  0
 27 28  2  0
 27 29  1  0
 30  2  1  1
 14 30  1  0
 20 30  1  0
M  CHG  1  28   1
M  END
$$$$
