7NP6_UK8_A_601
     RDKit          3D

 32 35  0  0  0  0  0  0  0  0999 V2000
   -7.9696   37.3696    8.8850 C   0  0  0  0  0  0  0  0  0  0  0  0
   -6.3571   39.1220   10.3668 C   0  0  0  0  0  0  0  0  0  0  0  0
   -5.5475   40.0547   11.2134 C   0  0  1  0  0  0  0  0  0  0  0  0
   -1.2407   34.4317    9.2388 C   0  0  0  0  0  0  0  0  0  0  0  0
   -0.9706   33.0773    9.1999 C   0  0  0  0  0  0  0  0  0  0  0  0
   -1.2503   30.7845    8.2133 C   0  0  0  0  0  0  0  0  0  0  0  0
   -6.7455   37.8004    8.3895 C   0  0  0  0  0  0  0  0  0  0  0  0
   -8.3811   37.8164   10.1149 C   0  0  0  0  0  0  0  0  0  0  0  0
   -7.5876   38.6797   10.8460 C   0  0  0  0  0  0  0  0  0  0  0  0
   -2.6289   39.2888    7.5817 C   0  0  0  0  0  0  0  0  0  0  0  0
   -1.3046   39.1788    6.9728 C   0  0  0  0  0  0  0  0  0  0  0  0
   -0.4782   40.2242    6.5264 C   0  0  0  0  0  0  0  0  0  0  0  0
   -0.5849   38.0264    6.7378 C   0  0  0  0  0  0  0  0  0  0  0  0
   -1.5556   32.2642    8.2380 C   0  0  0  0  0  0  0  0  0  0  0  0
   -2.4289   32.8364    7.3181 C   0  0  0  0  0  0  0  0  0  0  0  0
   -2.7128   34.1931    7.3519 C   0  0  0  0  0  0  0  0  0  0  0  0
   -2.1123   34.9924    8.3176 C   0  0  0  0  0  0  0  0  0  0  0  0
   -3.5407   36.8923    7.8794 C   0  0  0  0  0  0  0  0  0  0  0  0
   -3.5893   38.3781    7.9984 C   0  0  0  0  0  0  0  0  0  0  0  0
   -4.6391   39.1182    8.5423 C   0  0  0  0  0  0  0  0  0  0  0  0
   -5.9388   38.6863    9.0952 C   0  0  0  0  0  0  0  0  0  0  0  0
   -5.7328   41.3352   10.9083 F   0  0  0  0  0  0  0  0  0  0  0  0
   -5.8589   39.9361   12.4961 F   0  0  0  0  0  0  0  0  0  0  0  0
   -4.2282   39.8468   11.1393 F   0  0  0  0  0  0  0  0  0  0  0  0
   -4.3746   40.4026    8.4528 N   0  0  0  0  0  0  0  0  0  0  0  0
    0.6610   39.7333    6.0603 N   0  0  0  0  0  0  0  0  0  0  0  0
    0.5789   38.3918    6.1929 N   0  0  0  0  0  0  0  0  0  0  0  0
   -1.9392   30.0216    8.9297 O   0  0  0  0  0  0  0  0  0  0  0  0
   -0.2718   30.4159    7.5402 O   0  0  0  0  0  0  0  0  0  0  0  0
   -2.3318   36.3449    8.4497 O   0  0  0  0  0  0  0  0  0  0  0  0
   -3.0972   40.5273    7.8575 O   0  0  0  0  0  0  0  0  0  0  0  0
   -6.2450   37.2493    6.8373 Cl  0  0  0  0  0  0  0  0  0  0  0  0
  2  3  1  0
  4  5  2  0
  1  7  2  0
  1  8  1  0
  2  9  1  0
  8  9  2  0
 10 11  1  0
 11 12  2  0
 11 13  1  0
  5 14  1  0
  6 14  1  0
 14 15  2  0
 15 16  1  0
 16 17  2  0
  4 17  1  0
 10 19  2  0
 18 19  1  0
 19 20  1  0
 20 21  1  0
  7 21  1  0
  2 21  2  0
  3 22  1  6
  3 23  1  0
  3 24  1  0
 20 25  2  0
 12 26  1  0
 26 27  1  0
 13 27  2  0
  6 28  2  0
  6 29  1  0
 18 30  1  0
 17 30  1  0
 25 31  1  0
 10 31  1  0
  7 32  1  0
M  END
