
     RDKit          3D

 33 37  0  0  0  0  0  0  0  0999 V2000
    5.2367    3.4925   12.6393 C   0  0  0  0  0  0  0  0  0  0  0  0
    3.8881    3.3345   12.2373 C   0  0  0  0  0  0  0  0  0  0  0  0
    3.4025    2.3177   13.0132 C   0  0  0  0  0  0  0  0  0  0  0  0
   -2.9027   -1.5672   13.5629 N   0  0  0  0  0  0  0  0  0  0  0  0
    3.3199   -1.0670   15.5302 C   0  0  0  0  0  0  0  0  0  0  0  0
    0.9385   -1.8796   15.0833 C   0  0  0  0  0  0  0  0  0  0  0  0
    0.0189   -2.8546   15.4934 C   0  0  0  0  0  0  0  0  0  0  0  0
   -1.3110   -2.8659   15.0507 C   0  0  0  0  0  0  0  0  0  0  0  0
   -1.7095   -1.8484   14.1759 C   0  0  0  0  0  0  0  0  0  0  0  0
   -0.8352   -0.8598   13.7356 C   0  0  0  0  0  0  0  0  0  0  0  0
    0.5091   -0.9048   14.1702 C   0  0  0  0  0  0  0  0  0  0  0  0
   -1.6171   -0.0115   12.8853 C   0  0  0  0  0  0  0  0  0  0  0  0
   -4.1311   -2.3192   13.6617 C   0  0  0  0  0  0  0  0  0  0  0  0
   -1.2029    1.2212   12.1865 C   0  0  0  0  0  0  0  0  0  0  0  0
    1.3704    5.0909   10.0890 C   0  0  0  0  0  0  0  0  0  0  0  0
    0.9844    6.3657   10.8167 C   0  0  0  0  0  0  0  0  0  0  0  0
    1.1750    4.7509   12.4781 C   0  0  0  0  0  0  0  0  0  0  0  0
   -0.1061    1.3582   11.6495 O   0  0  0  0  0  0  0  0  0  0  0  0
   -2.1695    2.2140   12.1407 N   0  0  0  0  0  0  0  0  0  0  0  0
   -2.4667    2.8979   10.9096 C   0  0  0  0  0  0  0  0  0  0  0  0
   -2.8779   -0.4732   12.7853 N   0  0  0  0  0  0  0  0  0  0  0  0
    2.2590   -1.9685   15.5486 N   0  0  0  0  0  0  0  0  0  0  0  0
    4.3082   -1.3196   16.4018 N   0  0  0  0  0  0  0  0  0  0  0  0
    5.3422   -0.4567   16.4339 C   0  0  0  0  0  0  0  0  0  0  0  0
    5.4418    0.6385   15.6164 C   0  0  0  0  0  0  0  0  0  0  0  0
    3.3401   -0.0362   14.6770 N   0  0  0  0  0  0  0  0  0  0  0  0
    4.4043    0.8001   14.7244 C   0  0  0  0  0  0  0  0  0  0  0  0
    4.4487    1.8802   13.7952 N   0  0  0  0  0  0  0  0  0  0  0  0
    5.5830    2.6023   13.5792 N   0  0  0  0  0  0  0  0  0  0  0  0
    6.2352    4.4633   12.1292 C   0  0  0  0  0  0  0  0  0  0  0  0
    3.2327    4.0336   11.2870 N   0  0  0  0  0  0  0  0  0  0  0  0
    1.7747    4.1249   11.2069 C   0  0  2  0  0  0  0  0  0  0  0  0
    0.3339    5.8632   12.0191 N   0  0  0  0  0  0  0  0  0  0  0  0
  1  2  4  0
  2  3  4  0
  6  7  4  0
  7  8  4  0
  4  9  4  0
  8  9  4  0
  9 10  4  0
 10 11  4  0
  6 11  4  0
 10 12  4  0
  4 13  1  0
 12 14  1  0
 15 16  1  0
 14 18  2  0
 14 19  1  0
 19 20  1  0
 12 21  4  0
  4 21  4  0
  6 22  1  0
  5 22  1  0
  5 23  4  0
 23 24  4  0
 24 25  4  0
  5 26  4  0
 26 27  4  0
 25 27  4  0
  3 28  4  0
 27 28  1  0
  1 29  4  0
 28 29  4  0
  1 30  1  0
  2 31  1  0
 15 32  1  0
 32 31  1  1
 17 32  1  0
 16 33  1  0
 17 33  1  0
M  END
