7QPP_VDX_A_501
     RDKit          3D

 74 76  0  0  0  0  0  0  0  0999 V2000
   14.8147   15.7952   33.3299 O   0  0  0  0  0  0  0  0  0  0  0  0
    8.5491   27.5970   31.5925 O   0  0  0  0  0  0  0  0  0  0  0  0
   16.7872   18.0169   33.0089 C   0  0  1  0  0  0  0  0  0  0  0  0
   17.0804   16.6192   33.5956 C   0  0  1  0  0  0  0  0  0  0  0  0
   15.8371   16.0078   34.2729 C   0  0  1  0  0  0  0  0  0  0  0  0
   15.3180   16.9184   35.3979 C   0  0  2  0  0  0  0  0  0  0  0  0
   15.0850   18.3258   34.9016 C   0  0  0  0  0  0  0  0  0  0  0  0
   13.9600   18.9792   35.2555 C   0  0  0  0  0  0  0  0  0  0  0  0
   13.5597   20.2811   34.6777 C   0  0  0  0  0  0  0  0  0  0  0  0
   12.7306   21.1520   35.2870 C   0  0  0  0  0  0  0  0  0  0  0  0
   12.0475   20.8493   36.6133 C   0  0  1  0  0  0  0  0  0  0  0  0
   16.1606   18.9206   34.0590 C   0  0  0  0  0  0  0  0  0  0  0  0
   11.8109   22.1057   37.4884 C   0  0  2  0  0  0  0  0  0  0  0  0
   11.3449   23.3473   36.6971 C   0  0  2  0  0  0  0  0  0  0  0  0
   12.3000   23.6394   35.5103 C   0  0  1  0  0  0  0  0  0  0  0  0
   12.2503   22.4083   34.5878 C   0  0  1  0  0  0  0  0  0  0  0  0
   12.9061   22.8805   33.2924 C   0  0  2  0  0  0  0  0  0  0  0  0
   12.5094   24.3619   33.1843 C   0  0  2  0  0  0  0  0  0  0  0  0
   11.8065   24.7372   34.5141 C   0  0  2  0  0  0  0  0  0  0  0  0
   13.7610   23.8945   36.0123 C   0  0  2  0  0  0  0  0  0  0  0  0
   16.5850   20.1792   34.2585 C   0  0  0  0  0  0  0  0  0  0  0  0
   11.8858   26.2883   34.8283 C   0  0  2  0  0  0  0  0  0  0  0  0
   12.9016   26.7523   35.8808 C   0  0  2  0  0  0  0  0  0  0  0  0
   10.4820   26.9035   35.0919 C   0  0  1  0  0  0  0  0  0  0  0  0
    9.3980   26.5654   34.0407 C   0  0  1  0  0  0  0  0  0  0  0  0
    8.2574   27.6068   33.9848 C   0  0  1  0  0  0  0  0  0  0  0  0
    7.5666   27.7040   32.5976 C   0  0  1  0  0  0  0  0  0  0  0  0
    6.8708   29.0786   32.4876 C   0  0  2  0  0  0  0  0  0  0  0  0
    6.5145   26.5853   32.4259 C   0  0  1  0  0  0  0  0  0  0  0  0
   17.9563   18.5639   32.4470 O   0  0  0  0  0  0  0  0  0  0  0  0
   15.1013   15.0287   32.7706 H   0  0  0  0  0  0  0  0  0  0  0  0
    9.3280   28.1538   31.8604 H   0  0  0  0  0  0  0  0  0  0  0  0
   16.0470   17.8991   32.1873 H   0  0  0  0  0  0  0  0  0  0  0  0
   17.4299   15.9425   32.7842 H   0  0  0  0  0  0  0  0  0  0  0  0
   17.8996   16.6924   34.3470 H   0  0  0  0  0  0  0  0  0  0  0  0
   16.1239   15.0327   34.7317 H   0  0  0  0  0  0  0  0  0  0  0  0
   16.0633   16.9557   36.2215 H   0  0  0  0  0  0  0  0  0  0  0  0
   14.3860   16.4711   35.8099 H   0  0  0  0  0  0  0  0  0  0  0  0
   13.2659   18.4922   35.9283 H   0  0  0  0  0  0  0  0  0  0  0  0
   13.9630   20.5246   33.7063 H   0  0  0  0  0  0  0  0  0  0  0  0
   11.0690   20.3666   36.3951 H   0  0  0  0  0  0  0  0  0  0  0  0
   12.6465   20.1436   37.2258 H   0  0  0  0  0  0  0  0  0  0  0  0
   12.7511   22.3482   38.0255 H   0  0  0  0  0  0  0  0  0  0  0  0
   11.0531   21.8680   38.2634 H   0  0  0  0  0  0  0  0  0  0  0  0
   11.2918   24.2103   37.3895 H   0  0  0  0  0  0  0  0  0  0  0  0
   10.3120   23.1642   36.3261 H   0  0  0  0  0  0  0  0  0  0  0  0
   11.1858   22.1913   34.3199 H   0  0  0  0  0  0  0  0  0  0  0  0
   12.5381   22.2987   32.4176 H   0  0  0  0  0  0  0  0  0  0  0  0
   14.0128   22.7959   33.3585 H   0  0  0  0  0  0  0  0  0  0  0  0
   11.8240   24.5212   32.3238 H   0  0  0  0  0  0  0  0  0  0  0  0
   13.4276   24.9668   33.0221 H   0  0  0  0  0  0  0  0  0  0  0  0
   10.7312   24.5069   34.3315 H   0  0  0  0  0  0  0  0  0  0  0  0
   14.3674   24.4257   35.2508 H   0  0  0  0  0  0  0  0  0  0  0  0
   14.2984   22.9526   36.2425 H   0  0  0  0  0  0  0  0  0  0  0  0
   13.7717   24.4778   36.9526 H   0  0  0  0  0  0  0  0  0  0  0  0
   17.3601   20.6248   33.6482 H   0  0  0  0  0  0  0  0  0  0  0  0
   16.1787   20.7893   35.0571 H   0  0  0  0  0  0  0  0  0  0  0  0
   12.2202   26.7967   33.8964 H   0  0  0  0  0  0  0  0  0  0  0  0
   12.5018   26.6716   36.9076 H   0  0  0  0  0  0  0  0  0  0  0  0
   13.1834   27.8128   35.6997 H   0  0  0  0  0  0  0  0  0  0  0  0
   13.8445   26.1764   35.7882 H   0  0  0  0  0  0  0  0  0  0  0  0
   10.1316   26.6189   36.1086 H   0  0  0  0  0  0  0  0  0  0  0  0
   10.5973   28.0097   35.1225 H   0  0  0  0  0  0  0  0  0  0  0  0
    9.8921   26.5362   33.0426 H   0  0  0  0  0  0  0  0  0  0  0  0
    8.9804   25.5586   34.2323 H   0  0  0  0  0  0  0  0  0  0  0  0
    7.4902   27.3610   34.7475 H   0  0  0  0  0  0  0  0  0  0  0  0
    8.6695   28.6093   34.2436 H   0  0  0  0  0  0  0  0  0  0  0  0
    6.5516   29.2772   31.4407 H   0  0  0  0  0  0  0  0  0  0  0  0
    7.5657   29.8926   32.7948 H   0  0  0  0  0  0  0  0  0  0  0  0
    5.9698   29.1153   33.1407 H   0  0  0  0  0  0  0  0  0  0  0  0
    6.9087   25.7642   31.7897 H   0  0  0  0  0  0  0  0  0  0  0  0
    6.2237   26.1666   33.4125 H   0  0  0  0  0  0  0  0  0  0  0  0
    5.6014   26.9807   31.9301 H   0  0  0  0  0  0  0  0  0  0  0  0
   18.7257   18.0240   32.7668 H   0  0  0  0  0  0  0  0  0  0  0  0
  3  4  1  0
  5  1  1  0
  4  5  1  0
  5  6  1  0
  6  7  1  0
  7  8  2  0
  8  9  1  0
  9 10  2  0
 10 11  1  0
  3 12  1  0
  7 12  1  0
 11 13  1  0
 13 14  1  0
 14 15  1  0
 10 16  1  0
 15 16  1  6
 16 17  1  0
 17 18  1  0
 15 19  1  0
 19 18  1  0
 15 20  1  0
 12 21  2  0
 19 22  1  0
 22 23  1  0
 22 24  1  0
 24 25  1  0
 25 26  1  0
 27  2  1  6
 26 27  1  0
 27 28  1  0
 27 29  1  0
  3 30  1  0
  1 31  1  0
  2 32  1  0
  3 33  1  6
  4 34  1  6
  4 35  1  0
  5 36  1  1
  6 37  1  1
  6 38  1  0
  8 39  1  0
  9 40  1  0
 11 41  1  6
 11 42  1  0
 13 43  1  1
 13 44  1  0
 14 45  1  1
 14 46  1  0
 16 47  1  6
 17 48  1  6
 17 49  1  0
 18 50  1  6
 18 51  1  0
 19 52  1  6
 20 53  1  6
 20 54  1  0
 20 55  1  0
 21 56  1  0
 21 57  1  0
 22 58  1  6
 23 59  1  1
 23 60  1  0
 23 61  1  0
 24 62  1  1
 24 63  1  0
 25 64  1  6
 25 65  1  0
 26 66  1  1
 26 67  1  0
 28 68  1  6
 28 69  1  0
 28 70  1  0
 29 71  1  6
 29 72  1  0
 29 73  1  0
 30 74  1  0
M  END
