7VYJ_CA0_A_702
     RDKit          3D

 41 43  0  0  0  0  0  0  0  0999 V2000
   58.2672  -46.7144   20.3173 N   0  0  0  0  0  0  0  0  0  0  0  0
   57.5831  -47.4259   21.2708 C   0  0  0  0  0  0  0  0  0  0  0  0
   56.6509  -48.3572   20.9057 N   0  0  0  0  0  0  0  0  0  0  0  0
   56.4352  -48.5537   19.5824 C   0  0  0  0  0  0  0  0  0  0  0  0
   57.0931  -47.8620   18.6245 C   0  0  0  0  0  0  0  0  0  0  0  0
   58.0410  -46.9106   18.9836 C   0  0  0  0  0  0  0  0  0  0  0  0
   58.7555  -46.1539   18.0064 N   0  0  0  0  0  0  0  0  0  0  0  0
   56.6629  -48.2232   17.4010 N   0  0  0  0  0  0  0  0  0  0  0  0
   55.7193  -49.1647   17.6806 C   0  0  0  0  0  0  0  0  0  0  0  0
   55.5668  -49.3971   19.0112 N   0  0  0  0  0  0  0  0  0  0  0  0
   51.0725  -53.0800   15.6222 P   0  0  1  0  0  5  0  0  0  0  0  0
   52.7880  -55.2000   15.8386 C   0  0  0  0  0  0  0  0  0  0  0  0
   54.5840  -50.2595   19.6725 C   0  0  1  0  0  0  0  0  0  0  0  0
   50.7307  -52.0270   14.3417 O   0  0  0  0  0  0  0  0  0  0  0  0
   51.8908  -55.8429   16.4482 O   0  0  0  0  0  0  0  0  0  0  0  0
   53.3110  -49.4729   19.9901 C   0  0  2  0  0  0  0  0  0  0  0  0
   52.8422  -49.8349   21.2658 O   0  0  0  0  0  0  0  0  0  0  0  0
   49.9289  -54.0568   15.7761 O   0  0  0  0  0  0  0  0  0  0  0  0
   54.0955  -55.7535   15.7202 N   0  0  0  0  0  0  0  0  0  0  0  0
   52.3627  -49.9358   18.9109 C   0  0  2  0  0  0  0  0  0  0  0  0
   51.0285  -49.9732   19.3478 O   0  0  0  0  0  0  0  0  0  0  0  0
   52.5177  -53.9491   15.2799 O   0  0  0  0  0  0  0  0  0  0  0  0
   52.8783  -51.3356   18.6057 C   0  0  2  0  0  0  0  0  0  0  0  0
   54.2698  -51.3518   18.8314 O   0  0  0  0  0  0  0  0  0  0  0  0
   52.5828  -51.7656   17.1656 C   0  0  1  0  0  0  0  0  0  0  0  0
   51.2455  -52.1964   17.0693 O   0  0  0  0  0  0  0  0  0  0  0  0
   57.7813  -47.2472   22.3185 H   0  0  0  0  0  0  0  0  0  0  0  0
   58.7204  -46.4121   16.9951 H   0  0  0  0  0  0  0  0  0  0  0  0
   59.3253  -45.3285   18.2961 H   0  0  0  0  0  0  0  0  0  0  0  0
   55.1404  -49.6631   16.9146 H   0  0  0  0  0  0  0  0  0  0  0  0
   55.0319  -50.6603   20.6092 H   0  0  0  0  0  0  0  0  0  0  0  0
   51.1211  -52.4652   13.5438 H   0  0  0  0  0  0  0  0  0  0  0  0
   53.4797  -48.3707   19.9321 H   0  0  0  0  0  0  0  0  0  0  0  0
   51.8974  -49.5349   21.3200 H   0  0  0  0  0  0  0  0  0  0  0  0
   54.8093  -55.2883   15.1171 H   0  0  0  0  0  0  0  0  0  0  0  0
   54.3506  -56.6255   16.2347 H   0  0  0  0  0  0  0  0  0  0  0  0
   52.4657  -49.2764   18.0161 H   0  0  0  0  0  0  0  0  0  0  0  0
   50.7977  -49.0473   19.6214 H   0  0  0  0  0  0  0  0  0  0  0  0
   52.4075  -52.0694   19.2997 H   0  0  0  0  0  0  0  0  0  0  0  0
   52.7779  -50.9050   16.4859 H   0  0  0  0  0  0  0  0  0  0  0  0
   53.2785  -52.5965   16.9098 H   0  0  0  0  0  0  0  0  0  0  0  0
  1  2  2  0
  2  3  1  0
  3  4  2  0
  4  5  1  0
  1  6  1  0
  5  6  2  0
  6  7  1  0
  5  8  1  0
  8  9  2  0
  4 10  1  0
  9 10  1  0
 13 10  1  0
 11 14  1  6
 12 15  2  0
 13 16  1  0
 16 17  1  0
 11 18  2  0
 12 19  1  0
 16 20  1  0
 20 21  1  0
 11 22  1  0
 12 22  1  0
 20 23  1  0
 13 24  1  0
 23 24  1  0
 23 25  1  0
 11 26  1  0
 25 26  1  0
  2 27  1  0
  7 28  1  0
  7 29  1  0
  9 30  1  0
 13 31  1  1
 14 32  1  0
 16 33  1  1
 17 34  1  0
 19 35  1  0
 19 36  1  0
 20 37  1  6
 21 38  1  0
 23 39  1  1
 25 40  1  6
 25 41  1  0
M  END
