1TT1_KAI_A_998
     RDKit          3D

 15 15  0  0  0  0  0  0  0  0999 V2000
    5.4889   26.7154    6.6786 N   0  0  0  0  0  0  0  0  0  0  0  0
    4.6497   26.7689    5.4995 C   0  0  0  0  0  0  0  0  0  0  0  0
    3.8777   26.8951    2.7754 C   0  0  0  0  0  0  0  0  0  0  0  0
    6.0703   27.3820    1.9251 C   0  0  0  0  0  0  0  0  0  0  0  0
    6.7892   26.1915    6.2765 C   0  0  1  0  0  0  0  0  0  0  0  0
    6.6841   25.9256    4.7872 C   0  0  1  0  0  0  0  0  0  0  0  0
    6.3232   24.5023    4.6108 C   0  0  0  0  0  0  0  0  0  0  0  0
    5.6959   26.9574    4.4251 C   0  0  1  0  0  0  0  0  0  0  0  0
    7.5514   23.6976    4.4456 C   0  0  0  0  0  0  0  0  0  0  0  0
    5.1879   27.0685    3.0782 C   0  0  0  0  0  0  0  0  0  0  0  0
    7.8625   27.1842    6.5419 C   0  0  0  0  0  0  0  0  0  0  0  0
    8.8710   27.1713    5.7781 O   0  0  0  0  0  0  0  0  0  0  0  0
    8.7475   24.3851    4.2658 O   0  0  0  0  0  0  0  0  0  0  0  0
    7.6112   22.4494    4.4531 O   0  0  0  0  0  0  0  0  0  0  0  0
    7.8383   28.1102    7.5522 O   0  0  0  0  0  0  0  0  0  0  0  0
  2  1  1  6
  1  5  1  0
  5  6  1  0
  6  7  1  1
  2  8  1  0
  6  8  1  0
  7  9  1  1
  3 10  2  0
  4 10  1  1
  8 10  1  6
  5 11  1  6
 11 12  2  0
  9 13  1  0
  9 14  2  0
 11 15  1  0
M  END
$$$$
