1LPZ_CMB_B_301
     RDKit          3D

 32 35  0  0  0  0  0  0  0  0999 V2000
    6.2884    5.3878   22.4354 C   0  0  0  0  0  0  0  0  0  0  0  0
    7.1336    6.4183   22.8331 C   0  0  0  0  0  0  0  0  0  0  0  0
    7.0705    7.6824   22.2869 C   0  0  0  0  0  0  0  0  0  0  0  0
    6.0991    7.8611   21.3037 C   0  0  0  0  0  0  0  0  0  0  0  0
    5.2607    6.8490   20.9053 C   0  0  0  0  0  0  0  0  0  0  0  0
    5.3409    5.6115   21.4580 C   0  0  0  0  0  0  0  0  0  0  0  0
    7.7484    8.8469   22.4710 N   0  0  0  0  0  0  0  0  0  0  0  0
    7.2465    9.7587   21.6395 C   0  0  0  0  0  0  0  0  0  0  0  0
    6.2184    9.1699   20.9037 C   0  0  0  0  0  0  0  0  0  0  0  0
    4.2230    7.0731   19.8431 C   0  0  0  0  0  0  0  0  0  0  0  0
    7.6499   11.1472   21.4055 C   0  0  0  0  0  0  0  0  0  0  0  0
    6.8068   12.0679   20.7027 N   0  0  0  0  0  0  0  0  0  0  0  0
    7.1673   13.4072   20.3754 C   0  0  0  0  0  0  0  0  0  0  0  0
    7.7378   13.6290   19.0486 C   0  0  0  0  0  0  0  0  0  0  0  0
    8.8278    9.0290   23.4142 C   0  0  0  0  0  0  0  0  0  0  0  0
    8.7142    8.2010   24.6311 C   0  0  0  0  0  0  0  0  0  0  0  0
    7.5679    7.5853   25.0663 C   0  0  0  0  0  0  0  0  0  0  0  0
    7.5178    6.8200   26.2320 C   0  0  0  0  0  0  0  0  0  0  0  0
    8.6422    6.6545   27.0006 C   0  0  0  0  0  0  0  0  0  0  0  0
    9.7943    7.2538   26.5942 C   0  0  0  0  0  0  0  0  0  0  0  0
    9.8436    8.0115   25.4399 C   0  0  0  0  0  0  0  0  0  0  0  0
    8.2614   14.8128   18.5846 C   0  0  0  0  0  0  0  0  0  0  0  0
    8.7853   14.9345   17.2957 C   0  0  0  0  0  0  0  0  0  0  0  0
    8.7938   13.8514   16.4335 C   0  0  0  0  0  0  0  0  0  0  0  0
    8.2759   12.6715   16.8862 C   0  0  0  0  0  0  0  0  0  0  0  0
    7.7611   12.5527   18.1529 C   0  0  0  0  0  0  0  0  0  0  0  0
   10.9878    7.0598   27.4387 C   0  0  0  0  0  0  0  0  0  0  0  0
   12.1497    7.4661   27.0087 N   0  0  0  0  0  0  0  0  0  0  0  0
    9.4326   16.4815   16.7858 Cl  0  0  0  0  0  0  0  0  0  0  0  0
    8.2386   11.2236   15.8656 Cl  0  0  0  0  0  0  0  0  0  0  0  0
    8.7488   11.6169   21.8007 O   0  0  0  0  0  0  0  0  0  0  0  0
   10.9371    6.4469   28.7081 N   0  0  0  0  0  0  0  0  0  0  0  0
  1  2  2  0
  2  3  1  0
  3  4  2  0
  4  5  1  0
  1  6  1  0
  5  6  2  0
  3  7  1  0
  7  8  1  0
  4  9  1  0
  8  9  2  0
  5 10  1  0
  8 11  1  0
 11 12  1  0
 12 13  1  0
 13 14  1  0
  7 15  1  0
 15 16  1  0
 16 17  2  0
 17 18  1  0
 18 19  2  0
 19 20  1  0
 16 21  1  0
 20 21  2  0
 14 22  2  0
 22 23  1  0
 23 24  2  0
 24 25  1  0
 14 26  1  0
 25 26  2  0
 20 27  1  0
 27 28  2  0
 23 29  1  0
 25 30  1  0
 11 31  2  0
 27 32  1  0
M  END
$$$$
