1LPZ_CMB_B_301
     RDKit          3D

 32 35  0  0  0  0  0  0  0  0999 V2000
    8.1468    5.2872   21.8908 C   0  0  0  0  0  0  0  0  0  0  0  0
    7.8945    6.4683   22.5805 C   0  0  0  0  0  0  0  0  0  0  0  0
    6.6610    6.7631   23.1208 C   0  0  0  0  0  0  0  0  0  0  0  0
    5.6772    5.7947   22.9287 C   0  0  0  0  0  0  0  0  0  0  0  0
    5.9181    4.6260   22.2489 C   0  0  0  0  0  0  0  0  0  0  0  0
    7.1416    4.3569   21.7256 C   0  0  0  0  0  0  0  0  0  0  0  0
    6.1394    7.8063   23.8201 N   0  0  0  0  0  0  0  0  0  0  0  0
    4.8599    7.5391   24.0775 C   0  0  0  0  0  0  0  0  0  0  0  0
    4.5491    6.2927   23.5342 C   0  0  0  0  0  0  0  0  0  0  0  0
    4.8369    3.6012   22.0591 C   0  0  0  0  0  0  0  0  0  0  0  0
    3.8429    8.3493   24.7516 C   0  0  0  0  0  0  0  0  0  0  0  0
    2.4804    8.3680   24.3095 N   0  0  0  0  0  0  0  0  0  0  0  0
    1.4517    9.1645   24.8912 C   0  0  0  0  0  0  0  0  0  0  0  0
    0.4519    8.4635   25.6938 C   0  0  0  0  0  0  0  0  0  0  0  0
    6.8749    8.9907   24.1997 C   0  0  0  0  0  0  0  0  0  0  0  0
    8.3115    8.7575   24.4471 C   0  0  0  0  0  0  0  0  0  0  0  0
    9.3370    9.2379   23.6723 C   0  0  0  0  0  0  0  0  0  0  0  0
   10.6793    8.9774   23.9504 C   0  0  0  0  0  0  0  0  0  0  0  0
   11.0260    8.2126   25.0355 C   0  0  0  0  0  0  0  0  0  0  0  0
   10.0301    7.7219   25.8224 C   0  0  0  0  0  0  0  0  0  0  0  0
    8.7011    7.9800   25.5467 C   0  0  0  0  0  0  0  0  0  0  0  0
   -0.7358    8.9918   26.1422 C   0  0  0  0  0  0  0  0  0  0  0  0
   -1.6337    8.2461   26.9092 C   0  0  0  0  0  0  0  0  0  0  0  0
   -1.3516    6.9334   27.2461 C   0  0  0  0  0  0  0  0  0  0  0  0
   -0.1741    6.4004   26.8047 C   0  0  0  0  0  0  0  0  0  0  0  0
    0.7079    7.1337   26.0512 C   0  0  0  0  0  0  0  0  0  0  0  0
   10.4304    6.9030   26.9819 C   0  0  0  0  0  0  0  0  0  0  0  0
   11.6938    6.7988   27.2868 N   0  0  0  0  0  0  0  0  0  0  0  0
   -3.1253    8.9989   27.4392 Cl  0  0  0  0  0  0  0  0  0  0  0  0
    0.2846    4.7301   27.1779 Cl  0  0  0  0  0  0  0  0  0  0  0  0
    4.0952    9.0730   25.7502 O   0  0  0  0  0  0  0  0  0  0  0  0
    9.5025    6.2150   27.7912 N   0  0  0  0  0  0  0  0  0  0  0  0
  1  2  2  0
  2  3  1  0
  3  4  2  0
  4  5  1  0
  1  6  1  0
  5  6  2  0
  3  7  1  0
  7  8  1  0
  4  9  1  0
  8  9  2  0
  5 10  1  0
  8 11  1  0
 11 12  1  0
 12 13  1  0
 13 14  1  0
  7 15  1  0
 15 16  1  0
 16 17  2  0
 17 18  1  0
 18 19  2  0
 19 20  1  0
 16 21  1  0
 20 21  2  0
 14 22  2  0
 22 23  1  0
 23 24  2  0
 24 25  1  0
 14 26  1  0
 25 26  2  0
 20 27  1  0
 27 28  2  0
 23 29  1  0
 25 30  1  0
 11 31  2  0
 27 32  1  0
M  END
$$$$
