1LPZ_CMB_B_301
     RDKit          3D

 32 35  0  0  0  0  0  0  0  0999 V2000
    6.7101    4.4522   21.7511 C   0  0  0  0  0  0  0  0  0  0  0  0
    6.9138    5.6384   22.4482 C   0  0  0  0  0  0  0  0  0  0  0  0
    5.8732    6.4245   22.8950 C   0  0  0  0  0  0  0  0  0  0  0  0
    4.5963    5.9504   22.6001 C   0  0  0  0  0  0  0  0  0  0  0  0
    4.3866    4.7804   21.9123 C   0  0  0  0  0  0  0  0  0  0  0  0
    5.4273    4.0219   21.4822 C   0  0  0  0  0  0  0  0  0  0  0  0
    5.7749    7.5972   23.5765 N   0  0  0  0  0  0  0  0  0  0  0  0
    4.4832    7.8883   23.7235 C   0  0  0  0  0  0  0  0  0  0  0  0
    3.7301    6.8782   23.1255 C   0  0  0  0  0  0  0  0  0  0  0  0
    2.9977    4.2954   21.6103 C   0  0  0  0  0  0  0  0  0  0  0  0
    3.8415    9.0547   24.3342 C   0  0  0  0  0  0  0  0  0  0  0  0
    2.7626    9.7435   23.6909 N   0  0  0  0  0  0  0  0  0  0  0  0
    2.0750   10.8637   24.2414 C   0  0  0  0  0  0  0  0  0  0  0  0
    0.7641   10.6048   24.8327 C   0  0  0  0  0  0  0  0  0  0  0  0
    6.9009    8.3728   24.0439 C   0  0  0  0  0  0  0  0  0  0  0  0
    7.7545    7.6710   25.0229 C   0  0  0  0  0  0  0  0  0  0  0  0
    7.3356    6.6758   25.8694 C   0  0  0  0  0  0  0  0  0  0  0  0
    8.1873    6.0530   26.7824 C   0  0  0  0  0  0  0  0  0  0  0  0
    9.5052    6.4255   26.8655 C   0  0  0  0  0  0  0  0  0  0  0  0
    9.9495    7.4106   26.0385 C   0  0  0  0  0  0  0  0  0  0  0  0
    9.1059    8.0271   25.1346 C   0  0  0  0  0  0  0  0  0  0  0  0
    0.2196    9.3653   25.0736 C   0  0  0  0  0  0  0  0  0  0  0  0
   -1.0466    9.2121   25.6424 C   0  0  0  0  0  0  0  0  0  0  0  0
   -1.8033   10.3192   25.9863 C   0  0  0  0  0  0  0  0  0  0  0  0
   -1.2701   11.5544   25.7506 C   0  0  0  0  0  0  0  0  0  0  0  0
   -0.0257   11.7043   25.1915 C   0  0  0  0  0  0  0  0  0  0  0  0
   11.3700    7.7917   26.1486 C   0  0  0  0  0  0  0  0  0  0  0  0
   11.8872    8.5982   25.2642 N   0  0  0  0  0  0  0  0  0  0  0  0
   -1.6640    7.5943   25.9146 Cl  0  0  0  0  0  0  0  0  0  0  0  0
   -2.1528   13.0369   26.1536 Cl  0  0  0  0  0  0  0  0  0  0  0  0
    4.1907    9.5228   25.4493 O   0  0  0  0  0  0  0  0  0  0  0  0
   12.2123    7.3210   27.1774 N   0  0  0  0  0  0  0  0  0  0  0  0
  1  2  2  0
  2  3  1  0
  3  4  2  0
  4  5  1  0
  1  6  1  0
  5  6  2  0
  3  7  1  0
  7  8  1  0
  4  9  1  0
  8  9  2  0
  5 10  1  0
  8 11  1  0
 11 12  1  0
 12 13  1  0
 13 14  1  0
  7 15  1  0
 15 16  1  0
 16 17  2  0
 17 18  1  0
 18 19  2  0
 19 20  1  0
 16 21  1  0
 20 21  2  0
 14 22  2  0
 22 23  1  0
 23 24  2  0
 24 25  1  0
 14 26  1  0
 25 26  2  0
 20 27  1  0
 27 28  2  0
 23 29  1  0
 25 30  1  0
 11 31  2  0
 27 32  1  0
M  END
$$$$
