1LPZ_CMB_B_301
     RDKit          3D

 32 35  0  0  0  0  0  0  0  0999 V2000
    7.2398    5.4020   21.3696 C   0  0  0  0  0  0  0  0  0  0  0  0
    7.0992    6.0091   22.6129 C   0  0  0  0  0  0  0  0  0  0  0  0
    6.1374    6.9632   22.8683 C   0  0  0  0  0  0  0  0  0  0  0  0
    5.3110    7.2820   21.7923 C   0  0  0  0  0  0  0  0  0  0  0  0
    5.4433    6.6872   20.5615 C   0  0  0  0  0  0  0  0  0  0  0  0
    6.3980    5.7492   20.3333 C   0  0  0  0  0  0  0  0  0  0  0  0
    5.7794    7.7055   23.9500 N   0  0  0  0  0  0  0  0  0  0  0  0
    4.7581    8.4867   23.6015 C   0  0  0  0  0  0  0  0  0  0  0  0
    4.4476    8.2406   22.2643 C   0  0  0  0  0  0  0  0  0  0  0  0
    4.5363    7.0518   19.4214 C   0  0  0  0  0  0  0  0  0  0  0  0
    4.0392    9.5023   24.3743 C   0  0  0  0  0  0  0  0  0  0  0  0
    2.7369    9.9588   23.9899 N   0  0  0  0  0  0  0  0  0  0  0  0
    1.9412   10.8664   24.7475 C   0  0  0  0  0  0  0  0  0  0  0  0
    0.6915   10.3450   25.2963 C   0  0  0  0  0  0  0  0  0  0  0  0
    6.4217    7.6370   25.2425 C   0  0  0  0  0  0  0  0  0  0  0  0
    7.8874    7.8083   25.1999 C   0  0  0  0  0  0  0  0  0  0  0  0
    8.5764    8.5001   24.2358 C   0  0  0  0  0  0  0  0  0  0  0  0
    9.9664    8.6217   24.2420 C   0  0  0  0  0  0  0  0  0  0  0  0
   10.7082    8.0383   25.2379 C   0  0  0  0  0  0  0  0  0  0  0  0
   10.0522    7.3451   26.2079 C   0  0  0  0  0  0  0  0  0  0  0  0
    8.6759    7.2248   26.2015 C   0  0  0  0  0  0  0  0  0  0  0  0
    0.4535    9.0403   25.6596 C   0  0  0  0  0  0  0  0  0  0  0  0
   -0.7776    8.6293   26.1754 C   0  0  0  0  0  0  0  0  0  0  0  0
   -1.8108    9.5360   26.3393 C   0  0  0  0  0  0  0  0  0  0  0  0
   -1.5832   10.8343   25.9812 C   0  0  0  0  0  0  0  0  0  0  0  0
   -0.3732   11.2374   25.4743 C   0  0  0  0  0  0  0  0  0  0  0  0
   10.8735    6.7279   27.2662 C   0  0  0  0  0  0  0  0  0  0  0  0
   12.1648    6.9085   27.2621 N   0  0  0  0  0  0  0  0  0  0  0  0
   -0.9947    6.9459   26.6126 Cl  0  0  0  0  0  0  0  0  0  0  0  0
   -2.8361   12.0756   26.1506 Cl  0  0  0  0  0  0  0  0  0  0  0  0
    4.5115   10.0339   25.4129 O   0  0  0  0  0  0  0  0  0  0  0  0
   10.3259    5.9391   28.2993 N   0  0  0  0  0  0  0  0  0  0  0  0
  1  2  2  0
  2  3  1  0
  3  4  2  0
  4  5  1  0
  1  6  1  0
  5  6  2  0
  3  7  1  0
  7  8  1  0
  4  9  1  0
  8  9  2  0
  5 10  1  0
  8 11  1  0
 11 12  1  0
 12 13  1  0
 13 14  1  0
  7 15  1  0
 15 16  1  0
 16 17  2  0
 17 18  1  0
 18 19  2  0
 19 20  1  0
 16 21  1  0
 20 21  2  0
 14 22  2  0
 22 23  1  0
 23 24  2  0
 24 25  1  0
 14 26  1  0
 25 26  2  0
 20 27  1  0
 27 28  2  0
 23 29  1  0
 25 30  1  0
 11 31  2  0
 27 32  1  0
M  END
$$$$
