1LPZ_CMB_B_301
     RDKit          3D

 32 35  0  0  0  0  0  0  0  0999 V2000
    4.9137    8.3817   25.5517 C   0  0  0  0  0  0  0  0  0  0  0  0
    6.1923    8.5143   25.0208 C   0  0  0  0  0  0  0  0  0  0  0  0
    6.4202    8.9659   23.7384 C   0  0  0  0  0  0  0  0  0  0  0  0
    5.2785    9.2819   23.0041 C   0  0  0  0  0  0  0  0  0  0  0  0
    4.0126    9.1537   23.5208 C   0  0  0  0  0  0  0  0  0  0  0  0
    3.8124    8.7072   24.7872 C   0  0  0  0  0  0  0  0  0  0  0  0
    7.5246    9.1865   22.9761 N   0  0  0  0  0  0  0  0  0  0  0  0
    7.1280    9.6280   21.7834 C   0  0  0  0  0  0  0  0  0  0  0  0
    5.7350    9.6971   21.7768 C   0  0  0  0  0  0  0  0  0  0  0  0
    2.8016    9.5032   22.7043 C   0  0  0  0  0  0  0  0  0  0  0  0
    7.9113    9.9628   20.5920 C   0  0  0  0  0  0  0  0  0  0  0  0
    7.4597    9.6260   19.2748 N   0  0  0  0  0  0  0  0  0  0  0  0
    8.1285    9.9935   18.0714 C   0  0  0  0  0  0  0  0  0  0  0  0
    7.3564   10.7635   17.0988 C   0  0  0  0  0  0  0  0  0  0  0  0
    8.8834    8.9651   23.4149 C   0  0  0  0  0  0  0  0  0  0  0  0
    9.0025    8.0877   24.5961 C   0  0  0  0  0  0  0  0  0  0  0  0
    8.0043    7.2881   25.0931 C   0  0  0  0  0  0  0  0  0  0  0  0
    8.1720    6.4842   26.2211 C   0  0  0  0  0  0  0  0  0  0  0  0
    9.3714    6.4670   26.8871 C   0  0  0  0  0  0  0  0  0  0  0  0
   10.3803    7.2503   26.4176 C   0  0  0  0  0  0  0  0  0  0  0  0
   10.2139    8.0462   25.3006 C   0  0  0  0  0  0  0  0  0  0  0  0
    7.7842   11.1407   15.8475 C   0  0  0  0  0  0  0  0  0  0  0  0
    6.9761   11.8812   14.9821 C   0  0  0  0  0  0  0  0  0  0  0  0
    5.7012   12.2637   15.3628 C   0  0  0  0  0  0  0  0  0  0  0  0
    5.2680   11.8933   16.6040 C   0  0  0  0  0  0  0  0  0  0  0  0
    6.0627   11.1656   17.4540 C   0  0  0  0  0  0  0  0  0  0  0  0
   11.6587    7.2129   27.1523 C   0  0  0  0  0  0  0  0  0  0  0  0
   11.7677    6.4587   28.2102 N   0  0  0  0  0  0  0  0  0  0  0  0
    7.6016   12.3196   13.4044 Cl  0  0  0  0  0  0  0  0  0  0  0  0
    3.6539   12.3292   17.1905 Cl  0  0  0  0  0  0  0  0  0  0  0  0
    9.0180   10.5602   20.6456 O   0  0  0  0  0  0  0  0  0  0  0  0
   12.7880    7.9634   26.7638 N   0  0  0  0  0  0  0  0  0  0  0  0
  1  2  2  0
  2  3  1  0
  3  4  2  0
  4  5  1  0
  1  6  1  0
  5  6  2  0
  3  7  1  0
  7  8  1  0
  4  9  1  0
  8  9  2  0
  5 10  1  0
  8 11  1  0
 11 12  1  0
 12 13  1  0
 13 14  1  0
  7 15  1  0
 15 16  1  0
 16 17  2  0
 17 18  1  0
 18 19  2  0
 19 20  1  0
 16 21  1  0
 20 21  2  0
 14 22  2  0
 22 23  1  0
 23 24  2  0
 24 25  1  0
 14 26  1  0
 25 26  2  0
 20 27  1  0
 27 28  2  0
 23 29  1  0
 25 30  1  0
 11 31  2  0
 27 32  1  0
M  END
$$$$
