1LPZ_CMB_B_301
     RDKit          3D

 32 35  0  0  0  0  0  0  0  0999 V2000
    3.5887    5.3601   17.8063 C   0  0  0  0  0  0  0  0  0  0  0  0
    4.8006    5.0263   18.4015 C   0  0  0  0  0  0  0  0  0  0  0  0
    5.5566    5.9377   19.1073 C   0  0  0  0  0  0  0  0  0  0  0  0
    5.0242    7.2233   19.1852 C   0  0  0  0  0  0  0  0  0  0  0  0
    3.8285    7.5612   18.6004 C   0  0  0  0  0  0  0  0  0  0  0  0
    3.1005    6.6463   17.9101 C   0  0  0  0  0  0  0  0  0  0  0  0
    6.7426    5.8974   19.7716 N   0  0  0  0  0  0  0  0  0  0  0  0
    6.9860    7.1101   20.2664 C   0  0  0  0  0  0  0  0  0  0  0  0
    5.9308    7.9521   19.9161 C   0  0  0  0  0  0  0  0  0  0  0  0
    3.2806    8.9557   18.7027 C   0  0  0  0  0  0  0  0  0  0  0  0
    8.1421    7.6107   21.0135 C   0  0  0  0  0  0  0  0  0  0  0  0
    8.0654    8.7964   21.8138 N   0  0  0  0  0  0  0  0  0  0  0  0
    9.0640    9.2126   22.7414 C   0  0  0  0  0  0  0  0  0  0  0  0
    9.0579    8.5623   24.0499 C   0  0  0  0  0  0  0  0  0  0  0  0
    7.5747    4.7228   19.8967 C   0  0  0  0  0  0  0  0  0  0  0  0
    7.6966    3.9325   18.6557 C   0  0  0  0  0  0  0  0  0  0  0  0
    7.2059    4.3030   17.4291 C   0  0  0  0  0  0  0  0  0  0  0  0
    7.3437    3.5094   16.2897 C   0  0  0  0  0  0  0  0  0  0  0  0
    7.9908    2.3017   16.3611 C   0  0  0  0  0  0  0  0  0  0  0  0
    8.4878    1.9073   17.5649 C   0  0  0  0  0  0  0  0  0  0  0  0
    8.3513    2.6933   18.6929 C   0  0  0  0  0  0  0  0  0  0  0  0
    7.9415    8.2557   24.7919 C   0  0  0  0  0  0  0  0  0  0  0  0
    8.0308    7.6335   26.0390 C   0  0  0  0  0  0  0  0  0  0  0  0
    9.2636    7.3014   26.5741 C   0  0  0  0  0  0  0  0  0  0  0  0
   10.3780    7.6022   25.8438 C   0  0  0  0  0  0  0  0  0  0  0  0
   10.2895    8.2137   24.6183 C   0  0  0  0  0  0  0  0  0  0  0  0
    9.1786    0.6051   17.6137 C   0  0  0  0  0  0  0  0  0  0  0  0
    9.4235   -0.0320   16.5027 N   0  0  0  0  0  0  0  0  0  0  0  0
    6.5560    7.2790   26.9175 Cl  0  0  0  0  0  0  0  0  0  0  0  0
   12.0041    7.2200   26.4345 Cl  0  0  0  0  0  0  0  0  0  0  0  0
    9.2641    7.0403   21.0018 O   0  0  0  0  0  0  0  0  0  0  0  0
    9.5944    0.0028   18.8193 N   0  0  0  0  0  0  0  0  0  0  0  0
  1  2  2  0
  2  3  1  0
  3  4  2  0
  4  5  1  0
  1  6  1  0
  5  6  2  0
  3  7  1  0
  7  8  1  0
  4  9  1  0
  8  9  2  0
  5 10  1  0
  8 11  1  0
 11 12  1  0
 12 13  1  0
 13 14  1  0
  7 15  1  0
 15 16  1  0
 16 17  2  0
 17 18  1  0
 18 19  2  0
 19 20  1  0
 16 21  1  0
 20 21  2  0
 14 22  2  0
 22 23  1  0
 23 24  2  0
 24 25  1  0
 14 26  1  0
 25 26  2  0
 20 27  1  0
 27 28  2  0
 23 29  1  0
 25 30  1  0
 11 31  2  0
 27 32  1  0
M  END
$$$$
