1LPZ_CMB_B_301
     RDKit          3D

 32 35  0  0  0  0  0  0  0  0999 V2000
  759.3695 1411.4299 -688.6199 C   0  0  0  0  0  0  0  0  0  0  0  0
  759.1837 1411.9175 -689.9091 C   0  0  0  0  0  0  0  0  0  0  0  0
  760.1510 1412.6368 -690.5767 C   0  0  0  0  0  0  0  0  0  0  0  0
  761.3345 1412.8456 -689.8713 C   0  0  0  0  0  0  0  0  0  0  0  0
  761.5266 1412.3667 -688.5984 C   0  0  0  0  0  0  0  0  0  0  0  0
  760.5587 1411.6599 -687.9601 C   0  0  0  0  0  0  0  0  0  0  0  0
  760.2439 1413.2225 -691.8004 N   0  0  0  0  0  0  0  0  0  0  0  0
  761.4414 1413.7980 -691.8984 C   0  0  0  0  0  0  0  0  0  0  0  0
  762.1387 1413.5760 -690.7114 C   0  0  0  0  0  0  0  0  0  0  0  0
  762.8143 1412.6080 -687.8642 C   0  0  0  0  0  0  0  0  0  0  0  0
  762.0198 1414.5955 -692.9825 C   0  0  0  0  0  0  0  0  0  0  0  0
  762.4907 1413.9912 -694.1929 N   0  0  0  0  0  0  0  0  0  0  0  0
  763.5829 1414.4784 -694.9687 C   0  0  0  0  0  0  0  0  0  0  0  0
  764.6741 1415.1184 -694.2380 C   0  0  0  0  0  0  0  0  0  0  0  0
  759.2006 1413.2074 -692.7998 C   0  0  0  0  0  0  0  0  0  0  0  0
  757.9651 1412.5206 -692.3751 C   0  0  0  0  0  0  0  0  0  0  0  0
  757.1248 1411.8185 -693.2013 C   0  0  0  0  0  0  0  0  0  0  0  0
  755.9630 1411.1945 -692.7451 C   0  0  0  0  0  0  0  0  0  0  0  0
  755.6147 1411.2657 -691.4196 C   0  0  0  0  0  0  0  0  0  0  0  0
  756.4286 1411.9561 -690.5752 C   0  0  0  0  0  0  0  0  0  0  0  0
  757.5790 1412.5734 -691.0280 C   0  0  0  0  0  0  0  0  0  0  0  0
  765.1802 1416.3737 -694.4819 C   0  0  0  0  0  0  0  0  0  0  0  0
  766.2307 1416.9070 -693.7307 C   0  0  0  0  0  0  0  0  0  0  0  0
  766.8030 1416.1775 -692.7034 C   0  0  0  0  0  0  0  0  0  0  0  0
  766.3067 1414.9287 -692.4538 C   0  0  0  0  0  0  0  0  0  0  0  0
  765.2737 1414.4059 -693.1920 C   0  0  0  0  0  0  0  0  0  0  0  0
  756.0309 1412.0168 -689.1564 C   0  0  0  0  0  0  0  0  0  0  0  0
  756.2336 1410.9816 -688.3897 N   0  0  0  0  0  0  0  0  0  0  0  0
  766.8140 1418.5156 -694.1106 Cl  0  0  0  0  0  0  0  0  0  0  0  0
  766.9646 1413.9111 -691.1614 Cl  0  0  0  0  0  0  0  0  0  0  0  0
  762.1400 1415.8469 -692.9230 O   0  0  0  0  0  0  0  0  0  0  0  0
  755.4319 1413.1541 -688.5758 N   0  0  0  0  0  0  0  0  0  0  0  0
  1  2  2  0
  2  3  1  0
  3  4  2  0
  4  5  1  0
  1  6  1  0
  5  6  2  0
  3  7  1  0
  7  8  1  0
  4  9  1  0
  8  9  2  0
  5 10  1  0
  8 11  1  0
 11 12  1  0
 12 13  1  0
 13 14  1  0
  7 15  1  0
 15 16  1  0
 16 17  2  0
 17 18  1  0
 18 19  2  0
 19 20  1  0
 16 21  1  0
 20 21  2  0
 14 22  2  0
 22 23  1  0
 23 24  2  0
 24 25  1  0
 14 26  1  0
 25 26  2  0
 20 27  1  0
 27 28  2  0
 23 29  1  0
 25 30  1  0
 11 31  2  0
 27 32  1  0
M  END
$$$$
