6YRV_PJ8_AAA_802
     RDKit          3D

 17 16  0  0  0  0  0  0  0  0999 V2000
   21.8981   34.4922   16.6425 C   0  0  0  0  0  0  0  0  0  0  0  0
   21.8129   33.4665   17.7216 C   0  0  0  0  0  0  0  0  0  0  0  0
   21.2127   33.9397   19.0286 C   0  0  0  0  0  0  0  0  0  0  0  0
   22.2435   33.7230   20.0935 C   0  0  0  0  0  0  0  0  0  0  0  0
   21.8494   33.0188   21.3024 C   0  0  0  0  0  0  0  0  0  0  0  0
   20.7446   33.5341   22.0952 C   0  0  0  0  0  0  0  0  0  0  0  0
   21.0717   34.1871   23.3329 C   0  0  0  0  0  0  0  0  0  0  0  0
   21.4375   33.3456   24.4989 C   0  0  0  0  0  0  0  0  0  0  0  0
   21.4396   34.2529   25.7048 C   0  0  0  0  0  0  0  0  0  0  0  0
   22.6433   35.0732   26.0829 C   0  0  0  0  0  0  0  0  0  0  0  0
   22.6031   35.6924   27.5081 C   0  0  0  0  0  0  0  0  0  0  0  0
   23.9400   36.1168   28.0997 C   0  0  0  0  0  0  0  0  0  0  0  0
   24.8584   36.7572   27.0714 C   0  0  0  0  0  0  0  0  0  0  0  0
   26.0682   37.4903   27.4988 C   0  0  0  0  0  0  0  0  0  0  0  0
   26.6024   38.3342   26.3817 C   0  0  0  0  0  0  0  0  0  0  0  0
   27.9075   37.9903   25.7535 C   0  0  0  0  0  0  0  0  0  0  0  0
   27.9630   38.0651   24.2800 C   0  0  0  0  0  0  0  0  0  0  0  0
  1  2  1  0
  2  3  1  0
  3  4  1  0
  4  5  1  0
  5  6  1  0
  6  7  1  0
  7  8  1  0
  8  9  1  0
  9 10  1  0
 10 11  1  0
 11 12  1  0
 12 13  1  0
 13 14  1  0
 14 15  1  0
 15 16  1  0
 16 17  1  0
M  END
