7BCP_GCO_A_401
     RDKit          3D

 25 24  0  0  0  0  0  0  0  0999 V2000
   -2.8216   -1.4381   -2.4115 C   0  0  0  0  0  0  0  0  0  0  0  0
   -1.9349   -2.2369   -1.4987 C   0  0  1  0  0  0  0  0  0  0  0  0
   -2.5566   -2.4206   -0.0846 C   0  0  2  0  0  0  0  0  0  0  0  0
   -4.0868   -2.7135   -0.0592 C   0  0  1  0  0  0  0  0  0  0  0  0
   -4.9986   -1.4957   -0.3707 C   0  0  1  0  0  0  0  0  0  0  0  0
   -4.4079   -0.5370   -1.4269 C   0  0  0  0  0  0  0  0  0  0  0  0
   -3.3725   -1.9959   -3.3984 O   0  0  0  0  0  0  0  0  0  0  0  0
   -3.0085   -0.0758   -2.1945 O   0  0  0  0  0  0  0  0  0  0  0  0
   -1.6331   -3.4734   -2.0905 O   0  0  0  0  0  0  0  0  0  0  0  0
   -2.3202   -1.2544    0.6660 O   0  0  0  0  0  0  0  0  0  0  0  0
   -4.3720   -3.7410   -0.9782 O   0  0  0  0  0  0  0  0  0  0  0  0
   -6.2706   -1.9427   -0.7743 O   0  0  0  0  0  0  0  0  0  0  0  0
   -3.9910   -1.2528   -2.5580 O   0  0  0  0  0  0  0  0  0  0  0  0
   -0.9829   -1.6652   -1.3878 H   0  0  0  0  0  0  0  0  0  0  0  0
   -2.0364   -3.2677    0.4181 H   0  0  0  0  0  0  0  0  0  0  0  0
   -4.3574   -3.0601    0.9663 H   0  0  0  0  0  0  0  0  0  0  0  0
   -5.1570   -0.9199    0.5620 H   0  0  0  0  0  0  0  0  0  0  0  0
   -3.5285   -0.0044   -1.0063 H   0  0  0  0  0  0  0  0  0  0  0  0
   -5.1543    0.2295   -1.7285 H   0  0  0  0  0  0  0  0  0  0  0  0
   -3.5909    0.4740   -2.8146 H   0  0  0  0  0  0  0  0  0  0  0  0
   -0.8403   -3.8355   -1.6145 H   0  0  0  0  0  0  0  0  0  0  0  0
   -1.3687   -1.2754    0.9506 H   0  0  0  0  0  0  0  0  0  0  0  0
   -4.2010   -4.6048   -0.5196 H   0  0  0  0  0  0  0  0  0  0  0  0
   -6.1731   -2.3858   -1.6577 H   0  0  0  0  0  0  0  0  0  0  0  0
   -4.8142   -1.5132   -3.0489 H   0  0  0  0  0  0  0  0  0  0  0  0
  1  2  1  0
  2  3  1  0
  3  4  1  0
  4  5  1  0
  5  6  1  0
  1  7  2  0
  1  8  1  0
  2  9  1  0
  3 10  1  0
  4 11  1  0
  5 12  1  0
  6 13  1  0
  2 14  1  1
  3 15  1  1
  4 16  1  1
  5 17  1  1
  6 18  1  0
  6 19  1  0
  8 20  1  0
  9 21  1  0
 10 22  1  0
 11 23  1  0
 12 24  1  0
 13 25  1  0
M  END
