
     RDKit          3D

 35 39  0  0  0  0  0  0  0  0999 V2000
    5.0791   -0.7973   19.1200 C   0  0  0  0  0  0  0  0  0  0  0  0
    4.4627   -1.2505   16.4360 C   0  0  0  0  0  0  0  0  0  0  0  0
    3.8773   -1.4460   18.7894 C   0  0  0  0  0  0  0  0  0  0  0  0
    5.9566   -0.3722   18.1197 C   0  0  0  0  0  0  0  0  0  0  0  0
    5.6393   -0.6013   16.7873 C   0  0  0  0  0  0  0  0  0  0  0  0
    3.5841   -1.6749   17.4362 C   0  0  0  0  0  0  0  0  0  0  0  0
    2.9524   -1.8898   19.8331 C   0  0  0  0  0  0  0  0  0  0  0  0
    6.4808   -0.1933   15.8290 F   0  0  0  0  0  0  0  0  0  0  0  0
    1.6759   -3.3108   21.1823 N   0  0  0  0  0  0  0  0  0  0  0  0
    0.5726   -4.2598   21.3508 C   0  0  0  0  0  0  0  0  0  0  0  0
    1.5431   -1.7736   23.0674 C   0  0  0  0  0  0  0  0  0  0  0  0
    2.2990   -1.1836   20.7762 C   0  0  0  0  0  0  0  0  0  0  0  0
    2.3838    0.2733   20.9511 C   0  0  0  0  0  0  0  0  0  0  0  0
    2.7342   -4.2213   19.2869 O   0  0  0  0  0  0  0  0  0  0  0  0
    2.4870   -3.2932   20.0415 C   0  0  0  0  0  0  0  0  0  0  0  0
    1.4869   -1.9657   21.6097 N   0  0  0  0  0  0  0  0  0  0  0  0
   -1.2151   -5.1567   22.8742 C   0  0  0  0  0  0  0  0  0  0  0  0
   -0.1840   -6.6568   21.2787 C   0  0  0  0  0  0  0  0  0  0  0  0
    0.9937   -5.7090   21.0724 C   0  0  0  0  0  0  0  0  0  0  0  0
   -0.0781   -4.1485   22.7356 C   0  0  0  0  0  0  0  0  0  0  0  0
   -0.7657   -6.5257   22.6156 N   0  0  0  0  0  0  0  0  0  0  0  0
    2.6628    0.7068   22.1963 N   0  0  0  0  0  0  0  0  0  0  0  0
    2.2900    2.4597   20.1831 C   0  0  0  0  0  0  0  0  0  0  0  0
    2.9553    2.5522   23.6526 N   0  0  0  0  0  0  0  0  0  0  0  0
    2.1873    1.1253   19.8884 C   0  0  0  0  0  0  0  0  0  0  0  0
    2.7180    2.0264   22.3912 C   0  0  0  0  0  0  0  0  0  0  0  0
    2.5549    2.9292   21.4163 N   0  0  0  0  0  0  0  0  0  0  0  0
    3.1279    1.5766   24.7233 C   0  0  2  0  0  0  0  0  0  0  0  0
    1.8115    0.9220   25.1208 C   0  0  0  0  0  0  0  0  0  0  0  0
    3.7240    2.2891   25.9437 C   0  0  0  0  0  0  0  0  0  0  0  0
   -0.6377   -0.2922   25.7821 C   0  0  0  0  0  0  0  0  0  0  0  0
    0.6099    1.3695   24.5474 C   0  0  0  0  0  0  0  0  0  0  0  0
    1.7622   -0.1505   26.0264 C   0  0  0  0  0  0  0  0  0  0  0  0
    0.5457   -0.7504   26.3575 C   0  0  0  0  0  0  0  0  0  0  0  0
   -0.6062    0.7664   24.8770 C   0  0  0  0  0  0  0  0  0  0  0  0
  1  3  4  0
  1  4  4  0
  2  5  4  0
  4  5  4  0
  2  6  4  0
  3  6  4  0
  3  7  1  0
  5  8  1  0
  9 10  1  0
  7 12  4  0
 12 13  1  0
  7 15  4  0
  9 15  4  0
 14 15  2  0
  9 16  4  0
 11 16  1  0
 12 16  4  0
 10 19  1  0
 18 19  1  0
 10 20  1  0
 17 20  1  0
 17 21  1  0
 18 21  1  0
 13 22  4  0
 13 25  4  0
 23 25  4  0
 22 26  4  0
 24 26  1  0
 23 27  4  0
 26 27  4  0
 24 28  1  0
 28 29  1  0
 28 30  1  1
 29 32  4  0
 29 33  4  0
 31 34  4  0
 33 34  4  0
 31 35  4  0
 32 35  4  0
M  END
