7ODY_DGI_A_201
     RDKit          3D

 27 29  0  0  0  0  0  0  0  0999 V2000
   17.9955  -19.5741   -8.6377 O   0  0  0  0  0  0  0  0  0  0  0  0
   19.2152  -18.7526   -8.9888 P   0  0  1  0  0  0  0  0  0  0  0  0
   19.5836  -17.8434   -7.5988 O   0  0  0  0  0  0  0  0  0  0  0  0
   20.4829  -19.8160   -9.3635 O   0  0  0  0  0  0  0  0  0  0  0  0
   18.8477  -17.7692  -10.2914 O   0  0  0  0  0  0  0  0  0  0  0  0
   17.7873  -16.5113   -9.8433 P   0  0  2  0  0  0  0  0  0  0  0  0
   17.7582  -16.4307   -8.3352 O   0  0  0  0  0  0  0  0  0  0  0  0
   16.2019  -16.8269  -10.3533 O   0  0  0  0  0  0  0  0  0  0  0  0
   18.3512  -15.0352  -10.4868 O   0  0  0  0  0  0  0  0  0  0  0  0
   19.5774  -14.7002   -9.9677 C   0  0  0  0  0  0  0  0  0  0  0  0
   19.5516  -13.4386   -9.1675 C   0  0  1  0  0  0  0  0  0  0  0  0
   19.3940  -13.6730   -7.7905 O   0  0  0  0  0  0  0  0  0  0  0  0
   20.9417  -12.8019   -9.2329 C   0  0  1  0  0  0  0  0  0  0  0  0
   20.9555  -11.8714  -10.2891 O   0  0  0  0  0  0  0  0  0  0  0  0
   21.0157  -12.1255   -7.8782 C   0  0  0  0  0  0  0  0  0  0  0  0
   19.6321  -12.3611   -7.3407 C   0  0  2  0  0  0  0  0  0  0  0  0
   19.5427  -12.2240   -5.9134 N   0  0  0  0  0  0  0  0  0  0  0  0
   19.4109  -13.1709   -4.9643 C   0  0  0  0  0  0  0  0  0  0  0  0
   19.3681  -12.5775   -3.7510 N   0  0  0  0  0  0  0  0  0  0  0  0
   19.4725  -11.2691   -3.9407 C   0  0  0  0  0  0  0  0  0  0  0  0
   19.5828  -11.0210   -5.2817 C   0  0  0  0  0  0  0  0  0  0  0  0
   19.7021   -9.7580   -5.7326 N   0  0  0  0  0  0  0  0  0  0  0  0
   19.7163   -8.7030   -4.8761 C   0  0  0  0  0  0  0  0  0  0  0  0
   19.8458   -7.4013   -5.4349 N   0  0  0  0  0  0  0  0  0  0  0  0
   19.6090   -8.9229   -3.5500 N   0  0  0  0  0  0  0  0  0  0  0  0
   19.4873  -10.1815   -3.0608 C   0  0  0  0  0  0  0  0  0  0  0  0
   19.3853  -10.4018   -1.8120 O   0  0  0  0  0  0  0  0  0  0  0  0
  1  2  2  0
  2  3  1  1
  2  4  1  0
  2  5  1  0
  5  6  1  0
  6  7  2  0
  6  8  1  6
  6  9  1  0
  9 10  1  0
 11 10  1  6
 11 12  1  0
 11 13  1  0
 13 14  1  6
 13 15  1  0
 12 16  1  0
 15 16  1  0
 16 17  1  1
 17 18  1  0
 18 19  2  0
 19 20  1  0
 17 21  1  0
 20 21  2  0
 21 22  1  0
 22 23  2  0
 23 24  1  0
 23 25  1  0
 20 26  1  0
 25 26  1  0
 26 27  2  0
M  END
$$$$
