7JXX_VP7_A_401
     RDKit          3D

 25 28  0  0  0  0  0  0  0  0999 V2000
  185.3227   15.9130   50.7811 N   0  0  0  0  0  0  0  0  0  0  0  0
  184.1314   17.4940   49.4426 N   0  0  0  0  0  0  0  0  0  0  0  0
  184.7644   16.3009   49.6182 C   0  0  0  0  0  0  0  0  0  0  0  0
  184.0468   18.3482   50.4839 C   0  0  0  0  0  0  0  0  0  0  0  0
  183.3646   19.6296   50.2386 C   0  0  0  0  0  0  0  0  0  0  0  0
  182.9550   20.0307   48.9024 C   0  0  0  0  0  0  0  0  0  0  0  0
  183.0767   19.4905   47.6158 C   0  0  0  0  0  0  0  0  0  0  0  0
  182.5861   19.6942   45.1973 C   0  0  0  0  0  0  0  0  0  0  0  0
  181.5587   17.6500   42.5341 C   0  0  0  0  0  0  0  0  0  0  0  0
  181.9728   21.4671   46.7178 C   0  0  0  0  0  0  0  0  0  0  0  0
  182.3741   21.3093   49.0371 C   0  0  0  0  0  0  0  0  0  0  0  0
  183.3026   19.5017   53.3359 C   0  0  0  0  0  0  0  0  0  0  0  0
  184.6313   18.8883   52.9208 C   0  0  0  0  0  0  0  0  0  0  0  0
  182.5760   19.2441   44.0950 C   0  0  0  0  0  0  0  0  0  0  0  0
  182.6193   18.7208   42.7259 C   0  0  1  0  0  0  0  0  0  0  0  0
  183.9996   18.1815   42.3986 C   0  0  0  0  0  0  0  0  0  0  0  0
  181.8526   22.0233   47.9653 C   0  0  0  0  0  0  0  0  0  0  0  0
  182.9664   20.6388   51.0974 C   0  0  0  0  0  0  0  0  0  0  0  0
  183.1084   20.7953   52.5769 C   0  0  0  0  0  0  0  0  0  0  0  0
  184.6284   17.9840   51.7110 C   0  0  0  0  0  0  0  0  0  0  0  0
  185.2517   16.7594   51.8042 C   0  0  0  0  0  0  0  0  0  0  0  0
  182.5518   20.2079   46.5330 C   0  0  0  0  0  0  0  0  0  0  0  0
  184.8644   15.4631   48.5785 N   0  0  0  0  0  0  0  0  0  0  0  0
  182.3933   21.6387   50.3645 N   0  0  0  0  0  0  0  0  0  0  0  0
  182.3336   19.7989   41.8155 O   0  0  0  0  0  0  0  0  0  0  0  0
  2  3  1  0
  1  3  2  0
  2  4  2  0
  4  5  1  0
  5  6  1  0
  6  7  2  0
  6 11  1  0
 12 13  1  0
  8 14  3  0
 15  9  1  1
 14 15  1  0
 15 16  1  0
 10 17  1  0
 11 17  2  0
  5 18  2  0
 18 19  1  0
 12 19  1  0
  4 20  1  0
 13 20  1  0
  1 21  1  0
 20 21  2  0
  8 22  1  0
 10 22  2  0
  7 22  1  0
  3 23  1  0
 11 24  1  0
 18 24  1  0
 15 25  1  0
M  END
