8AEU_M0L_A_302
     RDKit          3D

 71 75  0  0  0  0  0  0  0  0999 V2000
   24.6275    9.6477   14.7202 O   0  0  0  0  0  0  0  0  0  0  0  0
   26.3765   10.1423   13.4372 N   0  0  0  0  0  0  0  0  0  0  0  0
   30.0683    7.1157   10.1242 O   0  0  0  0  0  0  0  0  0  0  0  0
   28.4838    8.0142   16.2427 N   0  0  0  0  0  0  0  0  0  0  0  0
   26.5841    8.7059   15.2620 N   0  0  0  0  0  0  0  0  0  0  0  0
   28.8041    5.6883   19.7109 C   0  0  0  0  0  0  0  0  0  0  0  0
   27.8733    5.7713   20.7135 C   0  0  0  0  0  0  0  0  0  0  0  0
   25.8817    5.9438   16.3176 C   0  0  0  0  0  0  0  0  0  0  0  0
   25.1562    4.7727   16.3904 C   0  0  0  0  0  0  0  0  0  0  0  0
   24.0884    7.1307   17.3225 C   0  0  0  0  0  0  0  0  0  0  0  0
   27.9642   10.1828   13.1338 O   0  0  0  0  0  0  0  0  0  0  0  0
   23.3549    5.9618   17.4065 C   0  0  0  0  0  0  0  0  0  0  0  0
   26.8147    6.6388   20.6307 C   0  0  0  0  0  0  0  0  0  0  0  0
   26.7086    7.4654   19.5284 C   0  0  0  0  0  0  0  0  0  0  0  0
   25.3584    7.1410   16.7712 C   0  0  0  0  0  0  0  0  0  0  0  0
   23.8995    4.7986   16.9308 C   0  0  0  0  0  0  0  0  0  0  0  0
   28.8857   12.1383   12.3369 C   0  0  0  0  0  0  0  0  0  0  0  0
   29.7266    6.5509   12.3759 C   0  0  0  0  0  0  0  0  0  0  0  0
   26.1592    8.4175   16.6376 C   0  0  1  0  0  0  0  0  0  0  0  0
   28.6888    6.5202   18.6157 C   0  0  0  0  0  0  0  0  0  0  0  0
   29.2140    6.8458   13.6206 C   0  0  0  0  0  0  0  0  0  0  0  0
   27.6378   11.6448   14.6862 C   0  0  0  0  0  0  0  0  0  0  0  0
   27.4136   10.9864   13.5684 C   0  0  0  0  0  0  0  0  0  0  0  0
   28.0864    4.8290   22.1526 Cl  0  0  0  0  0  0  0  0  0  0  0  0
   25.7963    9.5051   14.4808 C   0  0  0  0  0  0  0  0  0  0  0  0
   27.5655   10.8004   10.7525 C   0  0  0  0  0  0  0  0  0  0  0  0
   22.9718    3.3380   16.9891 Cl  0  0  0  0  0  0  0  0  0  0  0  0
   27.6473    7.4279   18.5120 C   0  0  0  0  0  0  0  0  0  0  0  0
   27.5519    8.3636   17.3287 C   0  0  1  0  0  0  0  0  0  0  0  0
   27.8763    8.2449   15.1429 C   0  0  0  0  0  0  0  0  0  0  0  0
   29.5753    7.4515   11.3451 C   0  0  0  0  0  0  0  0  0  0  0  0
   28.9374    8.6597   11.5506 C   0  0  0  0  0  0  0  0  0  0  0  0
   28.4442    8.9522   12.8006 C   0  0  0  0  0  0  0  0  0  0  0  0
   28.5435    8.0386   13.8485 C   0  0  0  0  0  0  0  0  0  0  0  0
   27.7466   11.2144   12.1542 C   0  0  1  0  0  0  0  0  0  0  0  0
   29.3647    7.6000    8.9975 C   0  0  0  0  0  0  0  0  0  0  0  0
   25.8071    9.9828   12.0946 C   0  0  0  0  0  0  0  0  0  0  0  0
   26.9197    9.7078   11.1397 C   0  0  0  0  0  0  0  0  0  0  0  0
   27.9417   10.6892   11.3170 N   0  0  0  0  0  0  0  0  0  0  0  0
   28.2922   11.2153   12.4793 C   0  0  0  0  0  0  0  0  0  0  0  0
   29.3136   11.8666   12.5732 O   0  0  0  0  0  0  0  0  0  0  0  0
   29.5814    5.0124   19.7741 H   0  0  0  0  0  0  0  0  0  0  0  0
   26.8326    5.9263   15.9171 H   0  0  0  0  0  0  0  0  0  0  0  0
   25.5565    3.8878   16.0416 H   0  0  0  0  0  0  0  0  0  0  0  0
   23.6824    8.0109   17.6768 H   0  0  0  0  0  0  0  0  0  0  0  0
   22.4102    5.9656   17.8218 H   0  0  0  0  0  0  0  0  0  0  0  0
   26.1070    6.6738   21.3811 H   0  0  0  0  0  0  0  0  0  0  0  0
   25.9154    8.1224   19.4619 H   0  0  0  0  0  0  0  0  0  0  0  0
   28.8047   12.9466   11.6404 H   0  0  0  0  0  0  0  0  0  0  0  0
   28.8749   12.5248   13.3346 H   0  0  0  0  0  0  0  0  0  0  0  0
   29.8023   11.6125   12.1680 H   0  0  0  0  0  0  0  0  0  0  0  0
   30.2214    5.6593   12.2171 H   0  0  0  0  0  0  0  0  0  0  0  0
   25.4775    9.1269   17.0582 H   0  0  0  0  0  0  0  0  0  0  0  0
   29.3905    6.4652   17.8609 H   0  0  0  0  0  0  0  0  0  0  0  0
   29.3305    6.1710   14.3928 H   0  0  0  0  0  0  0  0  0  0  0  0
   27.0196   11.5044   15.5005 H   0  0  0  0  0  0  0  0  0  0  0  0
   28.4318   12.3013   14.7480 H   0  0  0  0  0  0  0  0  0  0  0  0
   26.7303   10.1352   10.6822 H   0  0  0  0  0  0  0  0  0  0  0  0
   27.3862   11.6635   10.1460 H   0  0  0  0  0  0  0  0  0  0  0  0
   28.4485   10.3016   10.4110 H   0  0  0  0  0  0  0  0  0  0  0  0
   27.7803    9.3042   17.7849 H   0  0  0  0  0  0  0  0  0  0  0  0
   28.8324    9.3339   10.7763 H   0  0  0  0  0  0  0  0  0  0  0  0
   26.7902   11.6606   12.3306 H   0  0  0  0  0  0  0  0  0  0  0  0
   29.8509    7.2683    8.1039 H   0  0  0  0  0  0  0  0  0  0  0  0
   28.3614    7.2285    9.0166 H   0  0  0  0  0  0  0  0  0  0  0  0
   29.3493    8.6696    9.0192 H   0  0  0  0  0  0  0  0  0  0  0  0
   25.1166    9.1654   12.0900 H   0  0  0  0  0  0  0  0  0  0  0  0
   25.2887   10.8737   11.8076 H   0  0  0  0  0  0  0  0  0  0  0  0
   27.3213    8.7342   11.3285 H   0  0  0  0  0  0  0  0  0  0  0  0
   26.5513    9.7486   10.1360 H   0  0  0  0  0  0  0  0  0  0  0  0
   28.4213   10.9974   10.5144 H   0  0  0  0  0  0  0  0  0  0  0  0
  6  7  4  0
  8  9  4  0
 10 12  4  0
  7 13  4  0
 13 14  4  0
 10 15  4  0
  8 15  4  0
 12 16  4  0
  9 16  4  0
  5 19  1  0
 19 15  1  0
  6 20  4  0
 18 21  4  0
  2 23  1  0
 22 23  2  3
  7 24  1  0
  2 25  1  0
  1 25  2  0
  5 25  1  0
 16 27  1  0
 14 28  4  0
 20 28  4  0
  4 29  1  0
 19 29  1  0
 29 28  1  0
  5 30  1  0
  4 30  2  0
  3 31  1  0
 18 31  4  0
 31 32  4  0
 32 33  4  0
 11 33  1  0
 33 34  4  0
 21 34  4  0
 30 34  1  0
 26 35  1  0
 11 35  1  0
 17 35  1  0
  3 36  1  0
  2 37  1  0
 37 38  1  0
 38 39  1  0
 39 40  1  0
 23 40  1  0
 40 41  2  0
  6 42  1  0
  8 43  1  0
  9 44  1  0
 10 45  1  0
 12 46  1  0
 13 47  1  0
 14 48  1  0
 17 49  1  0
 17 50  1  0
 17 51  1  0
 18 52  1  0
 19 53  1  6
 20 54  1  0
 21 55  1  0
 22 56  1  0
 22 57  1  0
 26 58  1  0
 26 59  1  0
 26 60  1  0
 29 61  1  6
 32 62  1  0
 35 63  1  6
 36 64  1  0
 36 65  1  0
 36 66  1  0
 37 67  1  0
 37 68  1  0
 38 69  1  0
 38 70  1  0
 39 71  1  0
M  END
