7TWC_CXS_A_501
     RDKit          3D

 33 33  0  0  0  0  0  0  0  0999 V2000
    1.4454   -0.0199    1.4929 S   0  0  2  0  0  6  0  0  0  0  0  0
    0.2102    0.8184    1.6654 O   0  0  0  0  0  0  0  0  0  0  0  0
    2.4799    0.4048    2.4975 O   0  0  0  0  0  0  0  0  0  0  0  0
    2.0450    0.1936   -0.0635 O   0  0  0  0  0  0  0  0  0  0  0  0
    1.0186   -1.7398    1.7423 C   0  0  0  0  0  0  0  0  0  0  0  0
   -0.4747   -2.0243    1.5152 C   0  0  0  0  0  0  0  0  0  0  0  0
   -1.0012   -1.5494    0.1514 C   0  0  0  0  0  0  0  0  0  0  0  0
    0.0900   -1.0419   -0.6956 N   0  0  0  0  0  0  0  0  0  0  0  0
    1.2975   -0.6847    0.0738 C   0  0  2  0  0  0  0  0  0  0  0  0
    0.9583   -0.3550    1.5467 C   0  0  0  0  0  0  0  0  0  0  0  0
    2.2137    0.0758    2.3156 C   0  0  0  0  0  0  0  0  0  0  0  0
    2.8907    1.2724    1.6367 C   0  0  0  0  0  0  0  0  0  0  0  0
    3.2258    0.9576    0.1739 C   0  0  0  0  0  0  0  0  0  0  0  0
    1.9728    0.5230   -0.5972 C   0  0  0  0  0  0  0  0  0  0  0  0
    2.2749    1.1554   -0.1193 H   0  0  0  0  0  0  0  0  0  0  0  0
    1.6048   -2.3478    1.0209 H   0  0  0  0  0  0  0  0  0  0  0  0
    1.3236   -2.0489    2.7642 H   0  0  0  0  0  0  0  0  0  0  0  0
   -1.0517   -1.5245    2.3219 H   0  0  0  0  0  0  0  0  0  0  0  0
   -0.6628   -3.1149    1.6157 H   0  0  0  0  0  0  0  0  0  0  0  0
   -1.7865   -0.7784    0.3092 H   0  0  0  0  0  0  0  0  0  0  0  0
   -1.5017   -2.4013   -0.3573 H   0  0  0  0  0  0  0  0  0  0  0  0
   -0.2524   -0.2104   -1.2325 H   0  0  0  0  0  0  0  0  0  0  0  0
    2.0279   -1.5257    0.0572 H   0  0  0  0  0  0  0  0  0  0  0  0
    0.5237   -1.2461    2.0465 H   0  0  0  0  0  0  0  0  0  0  0  0
    0.2054    0.4628    1.5928 H   0  0  0  0  0  0  0  0  0  0  0  0
    1.9307    0.3554    3.3532 H   0  0  0  0  0  0  0  0  0  0  0  0
    2.9277   -0.7752    2.3729 H   0  0  0  0  0  0  0  0  0  0  0  0
    3.8262    1.5225    2.1817 H   0  0  0  0  0  0  0  0  0  0  0  0
    2.2194    2.1579    1.6839 H   0  0  0  0  0  0  0  0  0  0  0  0
    3.9903    0.1508    0.1307 H   0  0  0  0  0  0  0  0  0  0  0  0
    3.6563    1.8625   -0.3063 H   0  0  0  0  0  0  0  0  0  0  0  0
    2.2631    0.2526   -1.6358 H   0  0  0  0  0  0  0  0  0  0  0  0
    1.2583    1.3742   -0.6524 H   0  0  0  0  0  0  0  0  0  0  0  0
  1  2  2  0
  1  3  2  0
  1  4  1  1
  1  5  1  0
  5  6  1  0
  6  7  1  0
  7  8  1  0
  8  9  1  0
  9 10  1  0
 10 11  1  0
 11 12  1  0
 12 13  1  0
  9 14  1  0
 13 14  1  0
  4 15  1  0
  5 16  1  0
  5 17  1  0
  6 18  1  0
  6 19  1  0
  7 20  1  0
  7 21  1  0
  8 22  1  0
  9 23  1  6
 10 24  1  0
 10 25  1  0
 11 26  1  0
 11 27  1  0
 12 28  1  0
 12 29  1  0
 13 30  1  0
 13 31  1  0
 14 32  1  0
 14 33  1  0
M  END
