7EPV_FDA_A_401
     RDKit          3D

 53 58  0  0  0  0  0  0  0  0999 V2000
    4.4401  -30.4667   -7.1647 P   0  0  2  0  0  0  0  0  0  0  0  0
    5.5941  -30.2150   -6.2417 O   0  0  0  0  0  0  0  0  0  0  0  0
    3.8626  -32.0232   -6.9603 O   0  0  0  0  0  0  0  0  0  0  0  0
    5.0237  -30.3322   -8.7457 O   0  0  0  0  0  0  0  0  0  0  0  0
    4.1383  -29.6259   -9.5562 C   0  0  0  0  0  0  0  0  0  0  0  0
    4.2403  -30.2135  -10.9246 C   0  0  1  0  0  0  0  0  0  0  0  0
    3.6101  -29.4897  -11.9007 O   0  0  0  0  0  0  0  0  0  0  0  0
    5.6851  -30.4090  -11.3895 C   0  0  1  0  0  0  0  0  0  0  0  0
    6.2975  -31.4966  -10.8261 O   0  0  0  0  0  0  0  0  0  0  0  0
    5.3765  -30.5905  -12.8821 C   0  0  1  0  0  0  0  0  0  0  0  0
    4.7228  -31.8170  -12.9916 O   0  0  0  0  0  0  0  0  0  0  0  0
    4.3757  -29.4625  -13.0356 C   0  0  2  0  0  0  0  0  0  0  0  0
    5.1063  -28.2111  -13.1430 N   0  0  0  0  0  0  0  0  0  0  0  0
    5.9869  -27.8147  -12.1977 C   0  0  0  0  0  0  0  0  0  0  0  0
    6.5184  -26.6151  -12.5562 N   0  0  0  0  0  0  0  0  0  0  0  0
    5.9522  -26.2814  -13.7335 C   0  0  0  0  0  0  0  0  0  0  0  0
    6.1142  -25.1830  -14.5516 C   0  0  0  0  0  0  0  0  0  0  0  0
    7.0346  -24.1622  -14.1508 N   0  0  0  0  0  0  0  0  0  0  0  0
    5.4034  -25.1144  -15.6903 N   0  0  0  0  0  0  0  0  0  0  0  0
    4.5461  -26.0969  -16.0335 C   0  0  0  0  0  0  0  0  0  0  0  0
    4.3638  -27.1966  -15.2447 N   0  0  0  0  0  0  0  0  0  0  0  0
    5.0685  -27.2756  -14.1049 C   0  0  0  0  0  0  0  0  0  0  0  0
    4.0290  -32.3613    3.0017 N   0  0  0  0  0  0  0  0  0  0  0  0
    3.3011  -33.0102    3.9346 C   0  0  0  0  0  0  0  0  0  0  0  0
    2.0373  -32.9426    3.9062 O   0  0  0  0  0  0  0  0  0  0  0  0
    3.8835  -33.7360    4.9066 N   0  0  0  0  0  0  0  0  0  0  0  0
    5.2251  -33.8031    4.9301 C   0  0  0  0  0  0  0  0  0  0  0  0
    5.7867  -34.4807    5.8364 O   0  0  0  0  0  0  0  0  0  0  0  0
    5.9777  -33.1426    3.9799 C   0  0  0  0  0  0  0  0  0  0  0  0
    7.3847  -33.2651    4.0689 N   0  0  0  0  0  0  0  0  0  0  0  0
    8.1627  -32.5913    3.0929 C   0  0  0  0  0  0  0  0  0  0  0  0
    9.5413  -32.7146    3.2111 C   0  0  0  0  0  0  0  0  0  0  0  0
   10.3649  -32.0801    2.3169 C   0  0  0  0  0  0  0  0  0  0  0  0
   11.8430  -32.1942    2.4173 C   0  0  0  0  0  0  0  0  0  0  0  0
    9.7641  -31.3347    1.3239 C   0  0  0  0  0  0  0  0  0  0  0  0
   10.6545  -30.6331    0.3369 C   0  0  0  0  0  0  0  0  0  0  0  0
    8.3946  -31.2129    1.2069 C   0  0  0  0  0  0  0  0  0  0  0  0
    7.5606  -31.8493    2.1011 C   0  0  0  0  0  0  0  0  0  0  0  0
    6.1448  -31.7049    1.9801 N   0  0  0  0  0  0  0  0  0  0  0  0
    5.3720  -32.3960    2.9810 C   0  0  0  0  0  0  0  0  0  0  0  0
    5.4907  -30.9905    0.9313 C   0  0  0  0  0  0  0  0  0  0  0  0
    4.9489  -31.8631   -0.1749 C   0  0  2  0  0  0  0  0  0  0  0  0
    5.9823  -32.5557   -0.7665 O   0  0  0  0  0  0  0  0  0  0  0  0
    4.2867  -30.9563   -1.1937 C   0  0  2  0  0  0  0  0  0  0  0  0
    3.4285  -30.1244   -0.4410 O   0  0  0  0  0  0  0  0  0  0  0  0
    3.4146  -31.6786   -2.1666 C   0  0  2  0  0  0  0  0  0  0  0  0
    4.1399  -32.6787   -2.7838 O   0  0  0  0  0  0  0  0  0  0  0  0
    2.6490  -30.7922   -3.1078 C   0  0  0  0  0  0  0  0  0  0  0  0
    3.3082  -30.5712   -4.3000 O   0  0  0  0  0  0  0  0  0  0  0  0
    2.4052  -29.7018   -5.4068 P   0  0  1  0  0  0  0  0  0  0  0  0
    1.1548  -30.5178   -5.7232 O   0  0  0  0  0  0  0  0  0  0  0  0
    1.8751  -28.2548   -4.7029 O   0  0  0  0  0  0  0  0  0  0  0  0
    3.2319  -29.3646   -6.8367 O   0  0  0  0  0  0  0  0  0  0  0  0
  1  2  2  0
  1  3  1  6
  1  4  1  0
  4  5  1  0
  6  5  1  1
  6  7  1  0
  6  8  1  0
  8  9  1  1
  8 10  1  0
 10 11  1  1
  7 12  1  0
 10 12  1  0
 12 13  1  1
 13 14  1  0
 14 15  2  0
 15 16  1  0
 16 17  2  0
 17 18  1  0
 17 19  1  0
 19 20  2  0
 20 21  1  0
 13 22  1  0
 16 22  1  0
 21 22  2  0
 23 24  1  0
 24 25  2  0
 24 26  1  0
 26 27  1  0
 27 28  2  0
 27 29  1  0
 29 30  1  0
 30 31  1  0
 31 32  2  0
 32 33  1  0
 33 34  1  0
 33 35  2  0
 35 36  1  0
 35 37  1  0
 31 38  1  0
 37 38  2  0
 38 39  1  0
 23 40  1  0
 29 40  2  0
 39 40  1  0
 39 41  1  0
 41 42  1  0
 42 43  1  6
 42 44  1  0
 44 45  1  1
 44 46  1  0
 46 47  1  6
 46 48  1  0
 48 49  1  0
 49 50  1  0
 50 51  2  0
 50 52  1  1
  1 53  1  0
 50 53  1  0
M  END
$$$$
