6ZT2_QPK_A_303
     RDKit          3D

 10 10  0  0  0  0  0  0  0  0999 V2000
   -6.7426   29.0320  -11.2852 C   0  0  0  0  0  0  0  0  0  0  0  0
   -7.6036   29.5222  -12.2700 C   0  0  0  0  0  0  0  0  0  0  0  0
   -7.7216   30.8804  -12.5166 C   0  0  0  0  0  0  0  0  0  0  0  0
   -6.9532   31.7650  -11.7520 C   0  0  0  0  0  0  0  0  0  0  0  0
   -6.0914   31.3031  -10.7688 C   0  0  0  0  0  0  0  0  0  0  0  0
   -5.9911   29.9277  -10.5400 C   0  0  0  0  0  0  0  0  0  0  0  0
   -7.0952   33.1318  -12.0256 O   0  0  0  0  0  0  0  0  0  0  0  0
   -5.3513   32.1875  -10.0352 F   0  0  0  0  0  0  0  0  0  0  0  0
   -8.5482   31.3680  -13.4636 F   0  0  0  0  0  0  0  0  0  0  0  0
   -8.5831   28.4544  -13.2498 Cl  0  0  0  0  0  0  0  0  0  0  0  0
  1  2  2  0
  2  3  1  0
  3  4  2  0
  4  5  1  0
  1  6  1  0
  5  6  2  0
  4  7  1  0
  5  8  1  0
  3  9  1  0
  2 10  1  0
M  END
$$$$
