7UYB_OK0_A_303
     RDKit          3D

 50 53  0  0  0  0  0  0  0  0999 V2000
    1.0637    3.8548   -6.4007 C   0  0  0  0  0  0  0  0  0  0  0  0
    1.0242    5.1675   -6.8775 C   0  0  0  0  0  0  0  0  0  0  0  0
    1.0575    6.2529   -5.9849 C   0  0  0  0  0  0  0  0  0  0  0  0
    1.0109    7.6741   -6.5162 C   0  0  1  0  0  0  0  0  0  0  0  0
   -0.2842    7.9467   -7.3019 C   0  0  0  0  0  0  0  0  0  0  0  0
   -0.2923    9.3756   -7.8923 C   0  0  0  0  0  0  0  0  0  0  0  0
    0.6484   10.0983   -5.7739 C   0  0  0  0  0  0  0  0  0  0  0  0
    1.1987    8.7130   -5.3860 C   0  0  0  0  0  0  0  0  0  0  0  0
    1.1422    5.9948   -4.6036 C   0  0  0  0  0  0  0  0  0  0  0  0
    1.4620   -0.4104   -3.4850 C   0  0  0  0  0  0  0  0  0  0  0  0
    1.4141   -2.7644   -3.7891 F   0  0  0  0  0  0  0  0  0  0  0  0
    1.7241   -1.7767   -2.8727 C   0  0  1  0  0  0  0  0  0  0  0  0
    3.0436   -1.8943   -2.4783 F   0  0  0  0  0  0  0  0  0  0  0  0
    0.9481   -1.9812   -1.7437 F   0  0  0  0  0  0  0  0  0  0  0  0
    0.9095   -0.2234   -4.7906 C   0  0  0  0  0  0  0  0  0  0  0  0
    0.2722   -1.5941   -5.7556 S   0  0  2  0  0  6  0  0  0  0  0  0
   -0.8730   -1.1840   -6.6364 O   0  0  0  0  0  0  0  0  0  0  0  0
   -0.2461   -2.8563   -4.6925 N   0  0  0  0  0  0  0  0  0  0  0  0
    1.3513   -2.1249   -6.6576 O   0  0  0  0  0  0  0  0  0  0  0  0
    0.8221    1.0986   -5.3205 C   0  0  0  0  0  0  0  0  0  0  0  0
    0.3658    1.3347   -6.7105 C   0  0  0  0  0  0  0  0  0  0  0  0
   -0.9155    1.4723   -7.0874 N   0  0  0  0  0  4  0  0  0  0  0  0
   -0.8879    1.7065   -8.3865 N   0  0  0  0  0  0  0  0  0  0  0  0
    0.3727    1.7169   -8.7941 N   0  0  0  0  0  0  0  0  0  0  0  0
    1.1827    1.4906   -7.7690 N   0  0  0  0  0  0  0  0  0  0  0  0
    1.7442    0.7201   -2.6984 C   0  0  0  0  0  0  0  0  0  0  0  0
    1.5907    2.0040   -3.1999 C   0  0  0  0  0  0  0  0  0  0  0  0
    1.1682    2.2100   -4.5128 C   0  0  0  0  0  0  0  0  0  0  0  0
    1.1301    3.6022   -5.0221 C   0  0  0  0  0  0  0  0  0  0  0  0
    1.1813    4.6815   -4.1281 C   0  0  0  0  0  0  0  0  0  0  0  0
    0.6705   10.2753   -7.2304 N   0  0  0  0  0  0  0  0  0  0  0  0
    1.0439    3.0338   -7.1071 H   0  0  0  0  0  0  0  0  0  0  0  0
    0.9683    5.3342   -7.9460 H   0  0  0  0  0  0  0  0  0  0  0  0
    1.8510    7.8159   -7.2346 H   0  0  0  0  0  0  0  0  0  0  0  0
   -1.1619    7.8360   -6.6286 H   0  0  0  0  0  0  0  0  0  0  0  0
   -0.3933    7.2041   -8.1228 H   0  0  0  0  0  0  0  0  0  0  0  0
   -1.3206    9.7972   -7.8236 H   0  0  0  0  0  0  0  0  0  0  0  0
   -0.0288    9.3205   -8.9704 H   0  0  0  0  0  0  0  0  0  0  0  0
    1.2706   10.8855   -5.2950 H   0  0  0  0  0  0  0  0  0  0  0  0
   -0.3914   10.2153   -5.3912 H   0  0  0  0  0  0  0  0  0  0  0  0
    2.2841    8.7968   -5.1583 H   0  0  0  0  0  0  0  0  0  0  0  0
    0.6913    8.3878   -4.4522 H   0  0  0  0  0  0  0  0  0  0  0  0
    1.1798    6.8088   -3.8914 H   0  0  0  0  0  0  0  0  0  0  0  0
   -0.7169   -3.5796   -5.2810 H   0  0  0  0  0  0  0  0  0  0  0  0
   -0.9757   -2.4556   -4.0627 H   0  0  0  0  0  0  0  0  0  0  0  0
   -1.7760    1.4089   -6.4997 H   0  0  0  0  0  0  0  0  0  0  0  0
    2.1019    0.6175   -1.6818 H   0  0  0  0  0  0  0  0  0  0  0  0
    1.8458    2.8472   -2.5684 H   0  0  0  0  0  0  0  0  0  0  0  0
    1.2399    4.5055   -3.0609 H   0  0  0  0  0  0  0  0  0  0  0  0
    0.3911   11.2614   -7.4432 H   0  0  0  0  0  0  0  0  0  0  0  0
  1  2  4  0
  2  3  4  0
  3  4  1  0
  4  5  1  0
  5  6  1  0
  7  8  1  0
  4  8  1  0
  3  9  4  0
 10 12  1  0
 12 11  1  6
 12 13  1  0
 12 14  1  0
 10 15  4  0
 15 16  1  0
 16 17  2  0
 16 18  1  1
 16 19  2  0
 15 20  4  0
 20 21  1  0
 21 22  4  0
 22 23  4  0
 23 24  4  0
 24 25  4  0
 21 25  4  0
 10 26  4  0
 26 27  4  0
 20 28  4  0
 27 28  4  0
  1 29  4  0
 28 29  1  0
  9 30  4  0
 29 30  4  0
  7 31  1  0
  6 31  1  0
  1 32  1  0
  2 33  1  0
  4 34  1  6
  5 35  1  0
  5 36  1  0
  6 37  1  0
  6 38  1  0
  7 39  1  0
  7 40  1  0
  8 41  1  0
  8 42  1  0
  9 43  1  0
 18 44  1  0
 18 45  1  0
 22 46  1  0
 26 47  1  0
 27 48  1  0
 30 49  1  0
 31 50  1  0
M  CHG  1  22   1
M  END
