7JY3_VUD_C_201
     RDKit          3D

 27 30  0  0  0  0  0  0  0  0999 V2000
   31.5553    5.9339   50.6047 C   0  0  0  0  0  0  0  0  0  0  0  0
   31.6061    7.5765   48.4693 C   0  0  0  0  0  0  0  0  0  0  0  0
   32.4684    7.8663   49.5075 C   0  0  0  0  0  0  0  0  0  0  0  0
   32.2190    3.4178   53.0158 C   0  0  0  0  0  0  0  0  0  0  0  0
   28.4358    4.8208   49.5315 O   0  0  0  0  0  0  0  0  0  0  0  0
   25.9523    4.4909   54.9802 C   0  0  0  0  0  0  0  0  0  0  0  0
   24.8562    5.2954   54.7264 C   0  0  0  0  0  0  0  0  0  0  0  0
   26.7327    4.7901   52.7215 C   0  0  0  0  0  0  0  0  0  0  0  0
   27.4936    5.1095   50.4412 C   0  0  0  0  0  0  0  0  0  0  0  0
   26.8808    4.2429   53.9825 C   0  0  0  0  0  0  0  0  0  0  0  0
   30.0648    3.5868   48.3662 C   0  0  0  0  0  0  0  0  0  0  0  0
   29.7661    4.5118   49.5571 C   0  0  1  0  0  0  0  0  0  0  0  0
   30.7055    5.6696   49.5526 C   0  0  0  0  0  0  0  0  0  0  0  0
   32.4349    7.0203   50.5951 C   0  0  0  0  0  0  0  0  0  0  0  0
   30.7664    6.5270   48.4949 N   0  0  0  0  0  0  0  0  0  0  0  0
   31.6315    8.3449   47.4729 O   0  0  0  0  0  0  0  0  0  0  0  0
   31.5939    5.1219   51.7699 N   0  0  0  0  0  0  0  0  0  0  0  0
   30.9690    5.2711   52.9504 C   0  0  0  0  0  0  0  0  0  0  0  0
   31.3421    4.2023   53.7747 C   0  0  0  0  0  0  0  0  0  0  0  0
   32.3375    4.0053   51.8304 N   0  0  0  0  0  0  0  0  0  0  0  0
   27.6415    4.5536   51.7272 C   0  0  0  0  0  0  0  0  0  0  0  0
   24.6888    5.8522   53.4738 C   0  0  0  0  0  0  0  0  0  0  0  0
   25.6302    5.5878   52.4985 C   0  0  0  0  0  0  0  0  0  0  0  0
   25.4827    6.1213   51.2743 N   0  0  0  0  0  0  0  0  0  0  0  0
   26.3744    5.8952   50.2821 C   0  0  0  0  0  0  0  0  0  0  0  0
   26.1006    6.5182   49.0372 N   0  0  0  0  0  0  0  0  0  0  0  0
   26.1731    3.9147   56.1898 F   0  0  0  0  0  0  0  0  0  0  0  0
  2  3  1  0
  6  7  2  0
  5  9  1  0
  8 10  2  0
  6 10  1  0
 11 12  1  1
 12  5  1  6
  1 13  2  0
 12 13  1  0
  1 14  1  0
  3 14  2  0
 13 15  1  0
  2 15  1  0
  2 16  2  0
  1 17  1  0
 17 18  1  0
 18 19  2  0
  4 19  1  0
  4 20  2  0
 17 20  1  0
  9 21  2  0
  8 21  1  0
  7 22  1  0
  8 23  1  0
 22 23  2  0
 23 24  1  0
  9 25  1  0
 24 25  2  0
 25 26  1  0
  6 27  1  0
M  END
$$$$
