
     RDKit          3D

 33 36  0  0  0  0  0  0  0  0999 V2000
   -7.8553  -40.4864  -34.1087 N   0  0  0  0  0  0  0  0  0  0  0  0
  -11.0801  -33.8513  -37.9704 N   0  0  0  0  0  0  0  0  0  0  0  0
   -6.4853  -40.2205  -33.6342 C   0  0  0  0  0  0  0  0  0  0  0  0
   -8.5405  -41.4785  -33.2239 C   0  0  0  0  0  0  0  0  0  0  0  0
   -9.4788  -40.7185  -32.2547 C   0  0  0  0  0  0  0  0  0  0  0  0
   -7.8518  -40.8683  -35.5347 C   0  0  0  0  0  0  0  0  0  0  0  0
   -8.7154  -39.9651  -36.3856 C   0  0  0  0  0  0  0  0  0  0  0  0
   -8.9593  -38.4393  -38.2798 C   0  0  0  0  0  0  0  0  0  0  0  0
   -6.3430  -35.4870  -37.1799 C   0  0  0  0  0  0  0  0  0  0  0  0
   -5.4736  -33.9715  -35.3644 C   0  0  0  0  0  0  0  0  0  0  0  0
   -8.7464  -34.0142  -37.3337 C   0  0  0  0  0  0  0  0  0  0  0  0
  -12.3126  -31.8297  -37.6019 C   0  0  0  0  0  0  0  0  0  0  0  0
  -11.1651  -31.2979  -37.0666 C   0  0  0  0  0  0  0  0  0  0  0  0
   -8.5066  -35.1353  -38.1550 C   0  0  0  0  0  0  0  0  0  0  0  0
  -10.8912  -39.0450  -36.9440 C   0  0  0  0  0  0  0  0  0  0  0  0
   -7.5991  -42.3881  -32.3878 C   0  0  2  0  0  0  0  0  0  0  0  0
   -8.3390  -37.7001  -39.4440 C   0  0  0  0  0  0  0  0  0  0  0  0
   -7.3354  -35.9069  -38.0702 C   0  0  0  0  0  0  0  0  0  0  0  0
   -6.5299  -34.3714  -36.3523 C   0  0  0  0  0  0  0  0  0  0  0  0
   -7.7351  -33.6610  -36.4232 C   0  0  0  0  0  0  0  0  0  0  0  0
  -10.0035  -33.2435  -37.4293 C   0  0  0  0  0  0  0  0  0  0  0  0
  -12.2116  -33.1261  -38.0435 C   0  0  0  0  0  0  0  0  0  0  0  0
   -6.3331  -42.7289  -33.1764 C   0  0  1  0  0  0  0  0  0  0  0  0
  -10.3306  -38.3449  -38.0129 C   0  0  0  0  0  0  0  0  0  0  0  0
  -10.0897  -39.8516  -36.1360 C   0  0  0  0  0  0  0  0  0  0  0  0
   -5.5628  -41.4537  -33.5579 C   0  0  2  0  0  0  0  0  0  0  0  0
   -8.1597  -39.2433  -37.4511 C   0  0  0  0  0  0  0  0  0  0  0  0
   -7.1717  -36.9633  -38.9737 N   0  0  0  0  0  0  0  0  0  0  0  0
  -10.0056  -31.9747  -36.9687 N   0  0  0  0  0  0  0  0  0  0  0  0
   -8.2397  -43.6201  -32.0189 O   0  0  0  0  0  0  0  0  0  0  0  0
   -5.4791  -43.5955  -32.4092 O   0  0  0  0  0  0  0  0  0  0  0  0
   -4.5433  -41.1994  -32.5829 O   0  0  0  0  0  0  0  0  0  0  0  0
  -10.1884  -39.6909  -32.9425 O   0  0  0  0  0  0  0  0  0  0  0  0
  1  3  1  0
  1  4  1  0
  4  5  1  0
  1  6  1  0
  6  7  1  0
 12 13  4  0
 11 14  4  0
  4 16  1  0
  8 17  1  0
 14 18  4  0
  9 18  4  0
  9 19  4  0
 10 19  1  0
 11 20  4  0
 19 20  4  0
  2 21  4  0
 11 21  1  0
 12 22  4  0
  2 22  4  0
 16 23  1  0
  8 24  4  0
 15 24  4  0
  7 25  4  0
 15 25  4  0
 23 26  1  0
  3 26  1  0
  7 27  4  0
  8 27  4  0
 17 28  1  0
 18 28  1  0
 13 29  4  0
 21 29  4  0
 16 30  1  6
 23 31  1  1
 26 32  1  1
  5 33  1  0
M  END
