1MMV_3AR_B_2785
     RDKit          3D

 15 14  0  0  0  0  0  0  0  0999 V2000
   32.5695   19.4189   48.3250 N   0  0  0  0  0  0  0  0  0  0  0  0
   32.1549   18.1861   47.7337 C   0  0  2  0  0  0  0  0  0  0  0  0
   32.2352   18.2366   46.2539 C   0  0  0  0  0  0  0  0  0  0  0  0
   32.1767   17.1766   45.5619 O   0  0  0  0  0  0  0  0  0  0  0  0
   30.7898   17.7129   48.1406 C   0  0  0  0  0  0  0  0  0  0  0  0
   30.6305   17.5686   49.6399 C   0  0  0  0  0  0  0  0  0  0  0  0
   29.1799   17.2889   49.9886 C   0  0  0  0  0  0  0  0  0  0  0  0
   29.1161   17.1196   51.4367 N   0  0  0  0  0  0  0  0  0  0  0  0
   27.8433   16.9263   52.0603 C   0  0  0  0  0  0  0  0  0  0  0  0
   27.7248   16.7584   53.4652 N   0  0  0  0  0  0  0  0  0  0  0  0
   26.7961   16.9105   51.3580 N   0  0  0  0  0  0  0  0  0  0  0  0
   26.5185   16.6263   54.1924 C   0  0  0  0  0  0  0  0  0  0  0  0
   26.5399   16.4486   55.6585 C   0  0  0  0  0  0  0  0  0  0  0  0
   25.1764   16.3355   56.2765 C   0  0  0  0  0  0  0  0  0  0  0  0
   32.3787   19.4923   45.6405 O   0  0  0  0  0  0  0  0  0  0  0  0
  2  1  1  1
  2  3  1  0
  3  4  2  0
  2  5  1  0
  5  6  1  0
  6  7  1  0
  7  8  1  0
  8  9  1  0
  9 10  1  0
  9 11  2  0
 10 12  1  0
 12 13  1  0
 13 14  1  0
  3 15  1  0
M  CHG  1  11   1
M  END
$$$$
