1MMV_3AR_B_2785
     RDKit          3D

 15 14  0  0  0  0  0  0  0  0999 V2000
   18.1171   20.8709   57.8654 N   0  0  0  0  0  0  0  0  0  0  0  0
   17.3572   19.6980   57.5680 C   0  0  2  0  0  0  0  0  0  0  0  0
   16.0798   19.6703   58.3205 C   0  0  0  0  0  0  0  0  0  0  0  0
   15.7976   20.5782   59.1583 O   0  0  0  0  0  0  0  0  0  0  0  0
   18.0830   18.4006   57.7746 C   0  0  0  0  0  0  0  0  0  0  0  0
   19.3909   18.3207   57.0148 C   0  0  0  0  0  0  0  0  0  0  0  0
   20.0015   16.9392   57.1657 C   0  0  0  0  0  0  0  0  0  0  0  0
   21.2499   16.9417   56.4098 N   0  0  0  0  0  0  0  0  0  0  0  0
   22.0751   15.7734   56.4236 C   0  0  0  0  0  0  0  0  0  0  0  0
   23.2531   15.6894   55.6353 N   0  0  0  0  0  0  0  0  0  0  0  0
   21.7639   14.7935   57.1537 N   0  0  0  0  0  0  0  0  0  0  0  0
   24.1681   14.6107   55.6120 C   0  0  0  0  0  0  0  0  0  0  0  0
   25.3422   14.6397   54.7164 C   0  0  0  0  0  0  0  0  0  0  0  0
   24.9991   14.8648   53.2723 C   0  0  0  0  0  0  0  0  0  0  0  0
   15.1916   18.6089   58.0795 O   0  0  0  0  0  0  0  0  0  0  0  0
  2  1  1  1
  2  3  1  0
  3  4  2  0
  2  5  1  0
  5  6  1  0
  6  7  1  0
  7  8  1  0
  8  9  1  0
  9 10  1  0
  9 11  2  0
 10 12  1  0
 12 13  1  0
 13 14  1  0
  3 15  1  0
M  CHG  1  11   1
M  END
$$$$
