1MMV_3AR_B_2785
     RDKit          3D

 15 14  0  0  0  0  0  0  0  0999 V2000
   22.3512  -29.5336   45.8531 N   0  0  0  0  0  0  0  0  0  0  0  0
   23.0324  -28.3065   46.1215 C   0  0  2  0  0  0  0  0  0  0  0  0
   23.9309  -28.4268   47.2950 C   0  0  0  0  0  0  0  0  0  0  0  0
   24.7472  -27.5027   47.5876 O   0  0  0  0  0  0  0  0  0  0  0  0
   22.1426  -27.1107   46.2985 C   0  0  0  0  0  0  0  0  0  0  0  0
   20.8665  -27.1909   45.4865 C   0  0  0  0  0  0  0  0  0  0  0  0
   20.0220  -25.9500   45.7129 C   0  0  0  0  0  0  0  0  0  0  0  0
   18.8818  -26.0409   44.8066 N   0  0  0  0  0  0  0  0  0  0  0  0
   17.8983  -25.0023   44.8177 C   0  0  0  0  0  0  0  0  0  0  0  0
   16.7956  -25.0169   43.9232 N   0  0  0  0  0  0  0  0  0  0  0  0
   17.9981  -24.0520   45.6405 N   0  0  0  0  0  0  0  0  0  0  0  0
   15.7433  -24.0726   43.8782 C   0  0  0  0  0  0  0  0  0  0  0  0
   14.6465  -24.2148   42.8993 C   0  0  0  0  0  0  0  0  0  0  0  0
   13.6134  -23.1288   42.9826 C   0  0  0  0  0  0  0  0  0  0  0  0
   23.8526  -29.5940   48.0727 O   0  0  0  0  0  0  0  0  0  0  0  0
  2  1  1  1
  2  3  1  0
  3  4  2  0
  2  5  1  0
  5  6  1  0
  6  7  1  0
  7  8  1  0
  8  9  1  0
  9 10  1  0
  9 11  2  0
 10 12  1  0
 12 13  1  0
 13 14  1  0
  3 15  1  0
M  CHG  1  11   1
M  END
$$$$
