1MMV_3AR_B_2785
     RDKit          3D

 15 14  0  0  0  0  0  0  0  0999 V2000
    1.1057  -10.3398   59.3395 N   0  0  0  0  0  0  0  0  0  0  0  0
    1.0941   -8.9162   59.4612 C   0  0  2  0  0  0  0  0  0  0  0  0
    1.1186   -8.4899   60.8812 C   0  0  0  0  0  0  0  0  0  0  0  0
    1.0659   -9.3418   61.8179 O   0  0  0  0  0  0  0  0  0  0  0  0
   -0.0371   -8.2267   58.7557 C   0  0  0  0  0  0  0  0  0  0  0  0
   -0.0691   -8.5032   57.2668 C   0  0  0  0  0  0  0  0  0  0  0  0
   -1.2367   -7.7773   56.6236 C   0  0  0  0  0  0  0  0  0  0  0  0
   -1.1864   -8.0735   55.1955 N   0  0  0  0  0  0  0  0  0  0  0  0
   -2.2638   -7.6469   54.3569 C   0  0  0  0  0  0  0  0  0  0  0  0
   -2.2654   -7.9102   52.9616 N   0  0  0  0  0  0  0  0  0  0  0  0
   -3.2426   -7.0294   54.8578 N   0  0  0  0  0  0  0  0  0  0  0  0
   -3.2895   -7.5680   52.0476 C   0  0  0  0  0  0  0  0  0  0  0  0
   -3.1770   -7.9330   50.6209 C   0  0  0  0  0  0  0  0  0  0  0  0
   -4.3672   -7.5359   49.7966 C   0  0  0  0  0  0  0  0  0  0  0  0
    1.2011   -7.1153   61.1592 O   0  0  0  0  0  0  0  0  0  0  0  0
  2  1  1  1
  2  3  1  0
  3  4  2  0
  2  5  1  0
  5  6  1  0
  6  7  1  0
  7  8  1  0
  8  9  1  0
  9 10  1  0
  9 11  2  0
 10 12  1  0
 12 13  1  0
 13 14  1  0
  3 15  1  0
M  CHG  1  11   1
M  END
$$$$
