1MMV_3AR_B_2785
     RDKit          3D

 15 14  0  0  0  0  0  0  0  0999 V2000
   24.8364   -5.8818   23.3483 N   0  0  0  0  0  0  0  0  0  0  0  0
   25.3346   -7.1806   23.6745 C   0  0  2  0  0  0  0  0  0  0  0  0
   26.0861   -7.1714   24.9527 C   0  0  0  0  0  0  0  0  0  0  0  0
   26.5690   -6.0955   25.4166 O   0  0  0  0  0  0  0  0  0  0  0  0
   26.1738   -7.8256   22.6102 C   0  0  0  0  0  0  0  0  0  0  0  0
   26.2284   -9.3348   22.7261 C   0  0  0  0  0  0  0  0  0  0  0  0
   27.1300   -9.9112   21.6495 C   0  0  0  0  0  0  0  0  0  0  0  0
   26.3677   -9.8979   20.4051 N   0  0  0  0  0  0  0  0  0  0  0  0
   27.0462  -10.1411   19.1696 C   0  0  0  0  0  0  0  0  0  0  0  0
   26.3369  -10.2544   17.9448 N   0  0  0  0  0  0  0  0  0  0  0  0
   28.3023  -10.2514   19.1543 N   0  0  0  0  0  0  0  0  0  0  0  0
   26.9079  -10.3660   16.6554 C   0  0  0  0  0  0  0  0  0  0  0  0
   26.0486  -10.4802   15.4596 C   0  0  0  0  0  0  0  0  0  0  0  0
   26.8115  -10.5785   14.1704 C   0  0  0  0  0  0  0  0  0  0  0  0
   26.2486   -8.3888   25.6347 O   0  0  0  0  0  0  0  0  0  0  0  0
  2  1  1  6
  2  3  1  0
  3  4  2  0
  2  5  1  0
  5  6  1  0
  6  7  1  0
  7  8  1  0
  8  9  1  0
  9 10  1  0
  9 11  2  0
 10 12  1  0
 12 13  1  0
 13 14  1  0
  3 15  1  0
M  CHG  1  11   1
M  END
$$$$
