1MMV_3AR_B_2785
     RDKit          3D

 15 14  0  0  0  0  0  0  0  0999 V2000
    8.2412   28.7809   33.9430 N   0  0  0  0  0  0  0  0  0  0  0  0
    9.0040   29.1903   32.8063 C   0  0  2  0  0  0  0  0  0  0  0  0
    9.3851   30.6207   32.8915 C   0  0  0  0  0  0  0  0  0  0  0  0
   10.2415   31.1149   32.0989 O   0  0  0  0  0  0  0  0  0  0  0  0
    8.3566   28.9277   31.4778 C   0  0  0  0  0  0  0  0  0  0  0  0
    7.6626   27.5832   31.4074 C   0  0  0  0  0  0  0  0  0  0  0  0
    6.9229   27.4432   30.0893 C   0  0  0  0  0  0  0  0  0  0  0  0
    6.2819   26.1322   30.0990 N   0  0  0  0  0  0  0  0  0  0  0  0
    5.3490   25.8050   29.0653 C   0  0  0  0  0  0  0  0  0  0  0  0
    4.7081   24.5388   29.0196 N   0  0  0  0  0  0  0  0  0  0  0  0
    5.0760   26.6543   28.1740 N   0  0  0  0  0  0  0  0  0  0  0  0
    3.6673   24.1600   28.1396 C   0  0  0  0  0  0  0  0  0  0  0  0
    2.2996   23.9296   28.6474 C   0  0  0  0  0  0  0  0  0  0  0  0
    1.3476   23.4050   27.6120 C   0  0  0  0  0  0  0  0  0  0  0  0
    8.7710   31.4127   33.8760 O   0  0  0  0  0  0  0  0  0  0  0  0
  2  1  1  1
  2  3  1  0
  3  4  2  0
  2  5  1  0
  5  6  1  0
  6  7  1  0
  7  8  1  0
  8  9  1  0
  9 10  1  0
  9 11  2  0
 10 12  1  0
 12 13  1  0
 13 14  1  0
  3 15  1  0
M  CHG  1  11   1
M  END
$$$$
