1MMV_3AR_B_2785
     RDKit          3D

 15 14  0  0  0  0  0  0  0  0999 V2000
   22.9232   14.4700    3.6507 N   0  0  0  0  0  0  0  0  0  0  0  0
   23.4871   13.1596    3.7310 C   0  0  2  0  0  0  0  0  0  0  0  0
   23.2365   12.3812    2.4941 C   0  0  0  0  0  0  0  0  0  0  0  0
   22.4959   12.8407    1.5742 O   0  0  0  0  0  0  0  0  0  0  0  0
   23.0550   12.3530    4.9209 C   0  0  0  0  0  0  0  0  0  0  0  0
   23.4765   12.9642    6.2411 C   0  0  0  0  0  0  0  0  0  0  0  0
   23.1146   12.0371    7.3873 C   0  0  0  0  0  0  0  0  0  0  0  0
   24.0352   10.9064    7.3261 N   0  0  0  0  0  0  0  0  0  0  0  0
   23.9102    9.8533    8.2859 C   0  0  0  0  0  0  0  0  0  0  0  0
   24.7579    8.7147    8.2507 N   0  0  0  0  0  0  0  0  0  0  0  0
   23.0370    9.9303    9.1923 N   0  0  0  0  0  0  0  0  0  0  0  0
   24.7354    7.6276    9.1556 C   0  0  0  0  0  0  0  0  0  0  0  0
   25.6728    6.4973    8.9968 C   0  0  0  0  0  0  0  0  0  0  0  0
   25.5435    5.4468   10.0614 C   0  0  0  0  0  0  0  0  0  0  0  0
   23.8422   11.1197    2.3708 O   0  0  0  0  0  0  0  0  0  0  0  0
  2  1  1  6
  2  3  1  0
  3  4  2  0
  2  5  1  0
  5  6  1  0
  6  7  1  0
  7  8  1  0
  8  9  1  0
  9 10  1  0
  9 11  2  0
 10 12  1  0
 12 13  1  0
 13 14  1  0
  3 15  1  0
M  CHG  1  11   1
M  END
$$$$
