1MMV_3AR_B_2785
     RDKit          3D

 15 14  0  0  0  0  0  0  0  0999 V2000
   -2.1093   13.1430   26.1699 N   0  0  0  0  0  0  0  0  0  0  0  0
   -3.0210   12.1171   25.7727 C   0  0  2  0  0  0  0  0  0  0  0  0
   -4.2822   12.1771   26.5503 C   0  0  0  0  0  0  0  0  0  0  0  0
   -5.3159   11.5542   26.1637 O   0  0  0  0  0  0  0  0  0  0  0  0
   -2.4709   10.7215   25.8266 C   0  0  0  0  0  0  0  0  0  0  0  0
   -0.9575   10.6745   25.7849 C   0  0  0  0  0  0  0  0  0  0  0  0
   -0.4742    9.2400   25.8973 C   0  0  0  0  0  0  0  0  0  0  0  0
    0.9846    9.2814   25.8892 N   0  0  0  0  0  0  0  0  0  0  0  0
    1.7172    8.0675   26.0785 C   0  0  0  0  0  0  0  0  0  0  0  0
    3.1370    8.0502   26.0696 N   0  0  0  0  0  0  0  0  0  0  0  0
    1.0996    6.9842   26.2659 N   0  0  0  0  0  0  0  0  0  0  0  0
    3.9603    6.9154   26.2581 C   0  0  0  0  0  0  0  0  0  0  0  0
    5.4316    7.0419   26.2372 C   0  0  0  0  0  0  0  0  0  0  0  0
    6.1560    5.7483   26.4731 C   0  0  0  0  0  0  0  0  0  0  0  0
   -4.2994   12.9444   27.7269 O   0  0  0  0  0  0  0  0  0  0  0  0
  2  1  1  1
  2  3  1  0
  3  4  2  0
  2  5  1  0
  5  6  1  0
  6  7  1  0
  7  8  1  0
  8  9  1  0
  9 10  1  0
  9 11  2  0
 10 12  1  0
 12 13  1  0
 13 14  1  0
  3 15  1  0
M  CHG  1  11   1
M  END
$$$$
