6YT6_PKE_A_701
     RDKit          3D

 31 34  0  0  0  0  0  0  0  0999 V2000
    9.8178   -3.0391    3.5045 C   0  0  0  0  0  0  0  0  0  0  0  0
   12.8293   -0.4671    5.3126 C   0  0  0  0  0  0  0  0  0  0  0  0
   11.7956    0.1858    6.1030 C   0  0  0  0  0  0  0  0  0  0  0  0
   11.0735    1.2112    5.4599 C   0  0  0  0  0  0  0  0  0  0  0  0
   10.1115    1.9375    6.1154 C   0  0  0  0  0  0  0  0  0  0  0  0
    9.8829    1.6195    7.4332 C   0  0  0  0  0  0  0  0  0  0  0  0
   11.5370   -0.1026    7.4180 C   0  0  0  0  0  0  0  0  0  0  0  0
   10.2962   -2.0850   10.2217 C   0  0  0  0  0  0  0  0  0  0  0  0
   10.6159   -5.2153    4.5014 C   0  0  0  0  0  0  0  0  0  0  0  0
   11.2718   -7.4846    5.0707 C   0  0  0  0  0  0  0  0  0  0  0  0
   12.7460   -5.7243    5.5595 C   0  0  0  0  0  0  0  0  0  0  0  0
   10.9710   -2.4193    3.8514 N   0  0  0  0  0  0  0  0  0  0  0  0
    8.9359   -2.3617    2.7677 N   0  0  0  0  0  0  0  0  0  0  0  0
    9.2057   -1.1100    2.3958 C   0  0  0  0  0  0  0  0  0  0  0  0
   10.3698   -0.4614    2.7363 C   0  0  0  0  0  0  0  0  0  0  0  0
   11.2751   -1.1685    3.4970 C   0  0  0  0  0  0  0  0  0  0  0  0
   12.5203   -0.5471    3.8783 N   0  0  0  0  0  0  0  0  0  0  0  0
    9.6364   -4.3677    3.9499 N   0  0  0  0  0  0  0  0  0  0  0  0
   10.5785    0.6447    8.0202 N   0  0  0  0  0  0  0  0  0  0  0  0
   12.1292   -1.1223    8.1732 N   0  0  0  0  0  0  0  0  0  0  0  0
   11.7411   -1.1460    9.8908 S   0  0  2  0  0  6  0  0  0  0  0  0
   12.9931   -2.1832    7.7356 C   0  0  0  0  0  0  0  0  0  0  0  0
   12.9182   -1.8829   10.5212 O   0  0  0  0  0  0  0  0  0  0  0  0
   11.7464    0.2164   10.4736 O   0  0  0  0  0  0  0  0  0  0  0  0
   11.8195   -4.8279    5.0213 C   0  0  0  0  0  0  0  0  0  0  0  0
   10.3664   -6.6009    4.5443 C   0  0  0  0  0  0  0  0  0  0  0  0
   12.4733   -7.0609    5.5857 C   0  0  0  0  0  0  0  0  0  0  0  0
   14.0972   -5.4937    6.1669 C   0  0  0  0  0  0  0  0  0  0  0  0
   14.5467   -6.8364    6.5394 C   0  0  0  0  0  0  0  0  0  0  0  0
   13.5499   -7.7789    6.1773 N   0  0  0  0  0  0  0  0  0  0  0  0
   15.6585   -7.0736    7.0955 O   0  0  0  0  0  0  0  0  0  0  0  0
  2  3  1  0
  3  4  2  0
  4  5  1  0
  5  6  2  0
  3  7  1  0
  1 12  2  0
  1 13  1  0
 13 14  2  0
 14 15  1  0
 15 16  2  0
 12 16  1  0
 16 17  1  0
  2 17  1  1
  1 18  1  0
  9 18  1  0
  6 19  1  0
  7 19  2  0
  7 20  1  0
 21 20  1  6
  8 21  1  1
 22 20  1  6
 21 23  2  0
 21 24  2  0
  9 25  2  0
 11 25  1  0
  9 26  1  0
 10 26  2  0
 11 27  2  0
 10 27  1  0
 11 28  1  0
 28 29  1  6
 27 30  1  0
 29 30  1  0
 29 31  2  0
M  END
$$$$
