7XJN_NSD_C_401
     RDKit          3D

  9  8  0  0  0  0  0  0  0  0999 V2000
  -14.0203    1.5599    0.6703 C   0  0  0  0  0  0  0  0  0  0  0  0
  -13.6630    2.0248    2.0365 N   0  0  0  0  0  0  0  0  0  0  0  0
  -15.0210    0.4215    0.7643 C   0  0  0  0  0  0  0  0  0  0  0  0
  -16.7333   -0.8968   -0.3896 N   0  0  0  0  0  0  0  0  0  0  0  0
  -15.5326   -0.0742   -0.5726 C   0  0  0  0  0  0  0  0  0  0  0  0
  -21.1873    0.5935   -1.4000 N   0  0  0  0  0  0  0  0  0  0  0  0
  -17.8652   -0.4966   -1.2277 C   0  0  0  0  0  0  0  0  0  0  0  0
  -19.1627   -0.4425   -0.4543 C   0  0  0  0  0  0  0  0  0  0  0  0
  -19.9026    0.8518   -0.7518 C   0  0  0  0  0  0  0  0  0  0  0  0
  1  2  1  0
  1  3  1  0
  4  5  1  0
  3  5  1  0
  4  7  1  0
  7  8  1  0
  6  9  1  0
  8  9  1  0
M  END
