6XHT_V2V_B_301
     RDKit          3D

 59 60  0  0  0  0  0  0  0  0999 V2000
    0.7939   -2.3754    7.5427 C   0  0  0  0  0  0  0  0  0  0  0  0
   -0.1546   -2.5651    6.5400 C   0  0  0  0  0  0  0  0  0  0  0  0
    1.2912   -1.5490    4.9675 C   0  0  0  0  0  0  0  0  0  0  0  0
    2.0087   -1.7758    7.2113 C   0  0  0  0  0  0  0  0  0  0  0  0
   -0.9238   -2.3687    4.2029 C   0  0  1  0  0  0  0  0  0  0  0  0
   -2.2529   -1.7660    4.6308 C   0  0  2  0  0  0  0  0  0  0  0  0
   -3.2471   -2.6232    3.8823 C   0  0  2  0  0  0  0  0  0  0  0  0
   -2.5101   -3.9658    3.7806 C   0  0  2  0  0  0  0  0  0  0  0  0
   -2.9820   -4.9500    4.8596 C   0  0  0  0  0  0  0  0  0  0  0  0
   -0.6843   -1.3439    6.8463 C   0  0  0  0  0  0  0  0  0  0  0  0
    0.6864   -1.1373    6.1834 C   0  0  1  0  0  0  0  0  0  0  0  0
    1.8810   -1.1190    7.1710 C   0  0  1  0  0  0  0  0  0  0  0  0
    3.1858   -1.7968    6.6750 C   0  0  1  0  0  0  0  0  0  0  0  0
    2.9226   -3.0444    5.8168 C   0  0  0  0  0  0  0  0  0  0  0  0
    0.1029   -2.1742    5.2516 N   0  0  0  0  0  4  0  0  0  0  0  0
    2.2258   -1.3698    5.9375 N   0  0  0  0  0  0  0  0  0  0  0  0
    3.0212   -1.5844    8.2035 N   0  0  0  0  0  0  0  0  0  0  0  0
    1.5391   -1.1314    3.8006 O   0  0  0  0  0  0  0  0  0  0  0  0
   -1.1175   -3.7457    3.9358 O   0  0  0  0  0  0  0  0  0  0  0  0
   -2.1123   -4.8991    5.9634 O   0  0  0  0  0  0  0  0  0  0  0  0
   -0.6094   -2.7397    6.0605 O   0  0  0  0  0  0  0  0  0  0  0  0
   -2.1108   -3.2231    8.1580 O   0  0  0  0  0  0  0  0  0  0  0  0
   -3.2208   -2.3876    5.7400 O   0  0  0  0  0  0  0  0  0  0  0  0
   -1.7788   -1.0490    3.9878 O   0  0  0  0  0  0  0  0  0  0  0  0
   -3.8295    0.2393    4.9819 O   0  0  0  0  0  0  0  0  0  0  0  0
   -1.5672   -0.3075    6.4844 O   0  0  0  0  0  0  0  0  0  0  0  0
    1.5420   -3.1857    5.6022 O   0  0  0  0  0  0  0  0  0  0  0  0
    3.9778   -0.8755    5.9703 O   0  0  0  0  0  0  0  0  0  0  0  0
    2.1558    0.2049    7.5616 O   0  0  0  0  0  0  0  0  0  0  0  0
    0.9002   -2.1576    5.2428 O   0  0  0  0  0  0  0  0  0  0  0  0
   -3.4774   -2.1196    2.5893 O   0  0  0  0  0  0  0  0  0  0  0  0
   -2.3329   -0.4082    4.2799 O   0  0  0  0  0  0  0  0  0  0  0  0
   -1.9657   -3.2779    6.4705 P   0  0  2  0  0  5  0  0  0  0  0  0
   -2.5909   -0.8831    5.2506 P   0  0  1  0  0  5  0  0  0  0  0  0
    0.5802   -2.6754    8.5657 H   0  0  0  0  0  0  0  0  0  0  0  0
   -1.0999   -3.0137    6.8034 H   0  0  0  0  0  0  0  0  0  0  0  0
   -0.5976   -1.9018    3.2463 H   0  0  0  0  0  0  0  0  0  0  0  0
   -2.3957   -1.8958    5.7279 H   0  0  0  0  0  0  0  0  0  0  0  0
   -4.2084   -2.7005    4.4452 H   0  0  0  0  0  0  0  0  0  0  0  0
   -2.6886   -4.4302    2.7818 H   0  0  0  0  0  0  0  0  0  0  0  0
   -3.0411   -5.9550    4.3900 H   0  0  0  0  0  0  0  0  0  0  0  0
   -3.9979   -4.6629    5.1929 H   0  0  0  0  0  0  0  0  0  0  0  0
   -0.5380   -1.3408    7.9503 H   0  0  0  0  0  0  0  0  0  0  0  0
   -1.0689   -2.3486    6.5628 H   0  0  0  0  0  0  0  0  0  0  0  0
    0.6667   -0.1566    5.6537 H   0  0  0  0  0  0  0  0  0  0  0  0
    1.5418   -1.6895    8.0656 H   0  0  0  0  0  0  0  0  0  0  0  0
    3.7353   -2.1237    7.5901 H   0  0  0  0  0  0  0  0  0  0  0  0
    3.4315   -2.9307    4.8343 H   0  0  0  0  0  0  0  0  0  0  0  0
    3.3171   -3.9539    6.3286 H   0  0  0  0  0  0  0  0  0  0  0  0
    3.9376   -1.1604    7.9333 H   0  0  0  0  0  0  0  0  0  0  0  0
    2.8907   -1.9320    9.1840 H   0  0  0  0  0  0  0  0  0  0  0  0
   -1.3716   -3.7935    8.4921 H   0  0  0  0  0  0  0  0  0  0  0  0
   -3.3675    1.0630    4.6759 H   0  0  0  0  0  0  0  0  0  0  0  0
    1.4366   -4.0450    5.1080 H   0  0  0  0  0  0  0  0  0  0  0  0
    4.9165   -1.1894    6.0375 H   0  0  0  0  0  0  0  0  0  0  0  0
    2.5897    0.1620    8.4502 H   0  0  0  0  0  0  0  0  0  0  0  0
    0.4093   -1.9047    4.4159 H   0  0  0  0  0  0  0  0  0  0  0  0
   -4.1797   -1.4258    2.6753 H   0  0  0  0  0  0  0  0  0  0  0  0
   -3.1766   -0.0667    4.6731 H   0  0  0  0  0  0  0  0  0  0  0  0
  1  2  4  0
  1  4  4  0
  5  6  1  0
  6  7  1  0
  7  8  1  0
  8  9  1  0
 10 11  1  0
 11 12  1  0
 12 13  1  0
 13 14  1  0
  2 15  4  0
  3 15  4  0
  5 15  1  0
  3 16  4  0
  4 16  4  0
  4 17  1  0
  3 18  2  0
  5 19  1  0
  8 19  1  0
  9 20  1  0
 10 26  1  0
 14 27  1  0
 13 28  1  0
 12 29  1  0
 11 30  1  0
  7 31  1  0
  6 32  1  0
 33 20  1  1
 21 33  2  0
 33 22  1  0
 23 33  1  0
 34 23  1  6
 24 34  2  0
 34 25  1  0
 26 34  1  0
  1 35  1  0
  2 36  1  0
  5 37  1  1
  6 38  1  6
  7 39  1  6
  8 40  1  1
  9 41  1  0
  9 42  1  0
 10 43  1  0
 10 44  1  0
 11 45  1  1
 12 46  1  6
 13 47  1  6
 14 48  1  0
 14 49  1  0
 17 50  1  0
 17 51  1  0
 22 52  1  0
 25 53  1  0
 27 54  1  0
 28 55  1  0
 29 56  1  0
 30 57  1  0
 31 58  1  0
 32 59  1  0
M  CHG  1  15   1
M  END
