7MS7_ZQ1_A_302
     RDKit          3D

 29 31  0  0  0  0  0  0  0  0999 V2000
  -27.9216   50.8621  -23.1653 C   0  0  0  0  0  0  0  0  0  0  0  0
  -27.6791   49.4319  -22.7426 C   0  0  0  0  0  0  0  0  0  0  0  0
  -28.6521   48.6012  -23.5449 C   0  0  2  0  0  0  0  0  0  0  0  0
  -28.3855   47.1534  -23.2227 C   0  0  0  0  0  0  0  0  0  0  0  0
  -27.6714   46.7703  -22.1141 C   0  0  0  0  0  0  0  0  0  0  0  0
  -28.9166   46.2445  -24.1308 C   0  0  0  0  0  0  0  0  0  0  0  0
  -29.1008   53.3149  -24.9455 C   0  0  0  0  0  0  0  0  0  0  0  0
  -26.5914   53.4912  -24.1803 O   0  0  0  0  0  0  0  0  0  0  0  0
  -27.4819   52.6515  -25.0221 S   0  0  2  0  0  0  0  0  0  0  0  0
  -27.0389   52.7155  -26.4603 O   0  0  0  0  0  0  0  0  0  0  0  0
  -29.4632   53.9471  -23.7601 C   0  0  0  0  0  0  0  0  0  0  0  0
  -30.6959   54.4753  -23.6450 N   0  0  0  0  0  0  0  0  0  0  0  0
  -31.6151   54.4211  -24.6409 C   0  0  0  0  0  0  0  0  0  0  0  0
  -32.9500   55.0104  -24.4738 C   0  0  0  0  0  0  0  0  0  0  0  0
  -33.7748   55.0409  -25.4244 O   0  0  0  0  0  0  0  0  0  0  0  0
  -33.2915   55.5502  -23.2021 N   0  0  0  0  0  0  0  0  0  0  0  0
  -34.6148   56.0745  -22.9352 C   0  0  0  0  0  0  0  0  0  0  0  0
  -35.5478   54.9202  -22.8682 C   0  0  0  0  0  0  0  0  0  0  0  0
  -35.1683   53.6988  -22.3443 O   0  0  0  0  0  0  0  0  0  0  0  0
  -36.7480   54.9984  -23.2914 O   0  0  0  0  0  0  0  0  0  0  0  0
  -31.2645   53.7955  -25.8214 C   0  0  0  0  0  0  0  0  0  0  0  0
  -29.9970   53.2334  -25.9857 C   0  0  0  0  0  0  0  0  0  0  0  0
  -27.5110   51.0052  -24.5035 N   0  0  0  0  0  0  0  0  0  0  0  0
  -28.0140   50.1084  -25.4663 C   0  0  0  0  0  0  0  0  0  0  0  0
  -28.6100   48.8411  -25.0072 C   0  0  0  0  0  0  0  0  0  0  0  0
  -28.7153   44.9001  -23.9048 C   0  0  0  0  0  0  0  0  0  0  0  0
  -27.9937   44.5302  -22.7833 C   0  0  0  0  0  0  0  0  0  0  0  0
  -27.7488   42.8287  -22.5129 Cl  0  0  0  0  0  0  0  0  0  0  0  0
  -27.4773   45.4346  -21.8991 C   0  0  0  0  0  0  0  0  0  0  0  0
  1  2  1  0
  2  3  1  0
  3  4  1  6
  4  5  2  0
  4  6  1  0
  8  9  2  0
  7  9  1  0
  9 10  2  0
  7 11  2  0
 11 12  1  0
 12 13  2  0
 13 14  1  0
 14 15  2  0
 14 16  1  0
 16 17  1  0
 17 18  1  0
 18 19  1  0
 18 20  2  0
 13 21  1  0
  7 22  1  0
 21 22  2  0
  1 23  1  0
  9 23  1  1
 23 24  1  0
  3 25  1  0
 24 25  1  0
  6 26  2  0
 26 27  1  0
 27 28  1  0
 27 29  2  0
  5 29  1  0
M  END
$$$$
