1T40_ID5_A_320
     RDKit          3D

 38 40  0  0  0  0  0  0  0  0999 V2000
   17.1322   -4.0461   11.2204 C   0  0  0  0  0  0  0  0  0  0  0  0
   15.1634   -5.8866   12.1548 C   0  0  0  0  0  0  0  0  0  0  0  0
   17.4549   -4.9834   12.2532 C   0  0  0  0  0  0  0  0  0  0  0  0
   15.8324   -4.0360   10.6676 C   0  0  0  0  0  0  0  0  0  0  0  0
   14.8332   -4.9585   11.1305 C   0  0  0  0  0  0  0  0  0  0  0  0
   16.4696   -5.9223   12.7367 C   0  0  0  0  0  0  0  0  0  0  0  0
   15.2392   -2.2537    8.9828 F   0  0  0  0  0  0  0  0  0  0  0  0
   15.5623   -3.1359    9.6936 F   0  0  0  0  0  0  0  0  0  0  0  0
   16.7276   -6.9363   13.8164 C   0  0  0  0  0  0  0  0  0  0  0  0
   18.7386   -5.4133   12.5732 C   0  0  0  0  0  0  0  0  0  0  0  0
   20.0317   -2.2963    9.3498 F   0  0  0  0  0  0  0  0  0  0  0  0
   18.7154   -5.0660   12.8634 O   0  0  0  0  0  0  0  0  0  0  0  0
   15.7922   -7.5794   14.3329 O   0  0  0  0  0  0  0  0  0  0  0  0
   19.1480   -6.3972   13.6454 C   0  0  0  0  0  0  0  0  0  0  0  0
   19.7373   -4.1240   12.5131 C   0  0  0  0  0  0  0  0  0  0  0  0
   17.4753   -5.1791   12.2398 N   0  0  0  0  0  0  0  0  0  0  0  0
   19.9343   -4.5149   11.7005 S   0  0  0  0  0  0  0  0  0  0  0  0
   15.0324   -4.1574   10.9909 F   0  0  0  0  0  0  0  0  0  0  0  0
   18.7389   -3.7414   10.7971 C   0  0  0  0  0  0  0  0  0  0  0  0
   16.3542   -2.7401    9.5742 C   0  0  0  0  0  0  0  0  0  0  0  0
   17.4327   -4.2233   11.2216 C   0  0  0  0  0  0  0  0  0  0  0  0
   18.8231   -2.7561    9.7578 C   0  0  0  0  0  0  0  0  0  0  0  0
   17.6411   -2.2601    9.1507 C   0  0  0  0  0  0  0  0  0  0  0  0
   16.2347   -3.7219   10.6085 C   0  0  0  0  0  0  0  0  0  0  0  0
   19.2519   -3.2920   11.3410 C   0  0  0  0  0  0  0  0  0  0  0  0
   19.1707   -3.5512   10.1377 O   0  0  0  0  0  0  0  0  0  0  0  0
   18.8570   -2.0675   11.7468 O   0  0  0  0  0  0  0  0  0  0  0  0
   18.0509   -7.1342   14.2163 N   0  0  0  0  0  0  0  0  0  0  0  0
   17.8452   -3.3813   10.8815 H   0  0  0  0  0  0  0  0  0  0  0  0
   14.4450   -6.5495   12.4861 H   0  0  0  0  0  0  0  0  0  0  0  0
   13.8852   -4.9472   10.7234 H   0  0  0  0  0  0  0  0  0  0  0  0
   19.8348   -7.0962   13.2157 H   0  0  0  0  0  0  0  0  0  0  0  0
   19.5824   -5.8261   14.4392 H   0  0  0  0  0  0  0  0  0  0  0  0
   19.9401   -3.4862   13.3480 H   0  0  0  0  0  0  0  0  0  0  0  0
   20.6344   -4.6424   12.2450 H   0  0  0  0  0  0  0  0  0  0  0  0
   17.7051   -1.5522    8.4024 H   0  0  0  0  0  0  0  0  0  0  0  0
   19.4362   -4.3920    9.8205 H   0  0  0  0  0  0  0  0  0  0  0  0
   18.2405   -7.8023   14.9142 H   0  0  0  0  0  0  0  0  0  0  0  0
  1  3  2  0
  1  4  1  0
  2  5  1  0
  4  5  2  0
  2  6  2  0
  3  6  1  0
  4  8  1  0
  6  9  1  0
  3 12  1  0
  9 13  2  0
 10 14  1  0
 12 15  1  0
 10 16  2  0
 10 17  1  0
 17 19  1  0
  7 20  1  0
 16 21  1  0
 19 21  2  0
 11 22  1  0
 19 22  1  0
 20 23  1  0
 22 23  2  0
 18 24  1  0
 20 24  2  0
 21 24  1  0
 15 25  1  0
 25 26  1  0
 25 27  2  0
  9 28  1  0
 14 28  1  0
  1 29  1  0
  2 30  1  0
  5 31  1  0
 14 32  1  0
 14 33  1  0
 15 34  1  0
 15 35  1  0
 23 36  1  0
 26 37  1  0
 28 38  1  0
M  END
