1OPK_P16_A_2
     RDKit          3D

 29 32  0  0  0  0  0  0  0  0999 V2000
   49.9800   11.0930   14.9440 O   0  0  0  0  0  0  0  0  0  0  0  0
   49.5960   11.8940   13.8620 C   0  0  0  0  0  0  0  0  0  0  0  0
   49.2210   13.3090   14.2740 C   0  0  0  0  0  0  0  0  0  0  0  0
   50.1470   14.3930   14.0730 C   0  0  0  0  0  0  0  0  0  0  0  0
   49.8040   15.7040   14.4610 C   0  0  0  0  0  0  0  0  0  0  0  0
   48.5350   15.9740   15.0610 C   0  0  0  0  0  0  0  0  0  0  0  0
   47.6040   14.9030   15.2640 C   0  0  0  0  0  0  0  0  0  0  0  0
   46.3300   15.0460   15.8740 N   0  0  0  0  0  0  0  0  0  0  0  0
   45.8970   16.0610   16.6810 C   0  0  0  0  0  0  0  0  0  0  0  0
   44.6140   15.9020   17.1770 N   0  0  0  0  0  0  0  0  0  0  0  0
   44.1550   16.8600   18.0020 C   0  0  0  0  0  0  0  0  0  0  0  0
   44.9250   17.9970   18.3770 C   0  0  0  0  0  0  0  0  0  0  0  0
   44.4520   19.0260   19.2590 C   0  0  0  0  0  0  0  0  0  0  0  0
   45.2430   20.0910   19.5760 C   0  0  0  0  0  0  0  0  0  0  0  0
   46.6220   20.2330   18.9780 C   0  0  0  0  0  0  0  0  0  0  0  0
   47.4050   21.1590   19.1990 O   0  0  0  0  0  0  0  0  0  0  0  0
   47.0620   19.1770   18.1030 N   0  0  0  0  0  0  0  0  0  0  0  0
   46.2420   18.0920   17.7880 C   0  0  0  0  0  0  0  0  0  0  0  0
   46.7060   17.1150   16.9680 N   0  0  0  0  0  0  0  0  0  0  0  0
   48.4070   19.2460   17.4790 C   0  0  0  0  0  0  0  0  0  0  0  0
   44.7990   21.1600   20.4950 C   0  0  0  0  0  0  0  0  0  0  0  0
   44.2640   22.3890   20.0170 C   0  0  0  0  0  0  0  0  0  0  0  0
   44.0600   22.6440   18.2990 Cl  0  0  0  0  0  0  0  0  0  0  0  0
   43.8570   23.4190   20.9290 C   0  0  0  0  0  0  0  0  0  0  0  0
   44.0140   23.2320   22.3330 C   0  0  0  0  0  0  0  0  0  0  0  0
   44.5430   22.0100   22.8440 C   0  0  0  0  0  0  0  0  0  0  0  0
   44.9430   20.9980   21.9160 C   0  0  0  0  0  0  0  0  0  0  0  0
   45.5840   19.5110   22.5540 Cl  0  0  0  0  0  0  0  0  0  0  0  0
   47.9620   13.5700   14.8660 C   0  0  0  0  0  0  0  0  0  0  0  0
  1  2  1  0
  2  3  1  0
  3  4  2  0
  4  5  1  0
  5  6  2  0
  6  7  1  0
  7  8  1  0
  8  9  1  0
  9 10  2  0
 10 11  1  0
 11 12  2  0
 12 13  1  0
 13 14  2  0
 14 15  1  0
 15 16  2  0
 15 17  1  0
 12 18  1  0
 17 18  1  0
  9 19  1  0
 18 19  2  0
 17 20  1  0
 14 21  1  0
 21 22  2  0
 22 23  1  0
 22 24  1  0
 24 25  2  0
 25 26  1  0
 21 27  1  0
 26 27  2  0
 27 28  1  0
  3 29  1  0
  7 29  2  0
M  END
$$$$
