
     RDKit          3D

 33 35  0  0  0  0  0  0  0  0999 V2000
  -10.2052   15.9790   50.9181 P   0  0  2  0  0  5  0  0  0  0  0  0
  -11.5179   16.8922   50.9742 O   0  0  0  0  0  0  0  0  0  0  0  0
  -10.1020   14.9324   51.9732 O   0  0  0  0  0  0  0  0  0  0  0  0
   -9.0347   17.0542   50.9260 O   0  0  0  0  0  0  0  0  0  0  0  0
  -10.2132   15.4428   49.4010 O   0  0  0  0  0  0  0  0  0  0  0  0
   -7.6421   16.6740   50.2455 P   0  0  1  0  0  5  0  0  0  0  0  0
   -6.5596   17.4111   51.1510 O   0  0  0  0  0  0  0  0  0  0  0  0
   -7.4447   15.2120   50.0262 O   0  0  0  0  0  0  0  0  0  0  0  0
   -7.6933   17.5252   48.9048 O   0  0  0  0  0  0  0  0  0  0  0  0
   -7.9260   19.0905   48.9121 P   0  0  0  0  0  5  0  0  0  0  0  0
   -9.4985   19.2498   49.1519 O   0  0  0  0  0  0  0  0  0  0  0  0
   -7.1236   19.9070   49.8565 O   0  0  0  0  0  0  0  0  0  0  0  0
   -7.7928   19.5580   47.3906 O   0  0  0  0  0  0  0  0  0  0  0  0
  -10.5960   16.3643   48.3841 C   0  0  0  0  0  0  0  0  0  0  0  0
  -11.3919   15.6027   47.3233 C   0  0  1  0  0  0  0  0  0  0  0  0
  -11.7057   14.2601   47.7887 O   0  0  0  0  0  0  0  0  0  0  0  0
  -12.7438   16.2347   47.0119 C   0  0  1  0  0  0  0  0  0  0  0  0
  -12.6445   17.3660   46.1680 O   0  0  0  0  0  0  0  0  0  0  0  0
  -13.4737   15.0801   46.3487 C   0  0  1  0  0  0  0  0  0  0  0  0
  -13.0733   15.0265   44.9689 O   0  0  0  0  0  0  0  0  0  0  0  0
  -12.9440   13.8786   47.1511 C   0  0  2  0  0  0  0  0  0  0  0  0
  -13.8668   13.4353   48.1859 N   0  0  0  0  0  0  0  0  0  0  0  0
  -13.7588   13.6602   49.5029 C   0  0  0  0  0  0  0  0  0  0  0  0
  -14.7962   13.0730   50.1150 N   0  0  0  0  0  4  0  0  0  0  0  0
  -15.0471   13.0722   51.5547 C   0  0  0  0  0  0  0  0  0  0  0  0
  -15.5851   12.4444   49.1554 C   0  0  0  0  0  0  0  0  0  0  0  0
  -16.7830   11.6766   49.2430 C   0  0  0  0  0  0  0  0  0  0  0  0
  -17.4210   11.3422   50.2357 O   0  0  0  0  0  0  0  0  0  0  0  0
  -17.1979   11.3117   47.9713 N   0  0  0  0  0  0  0  0  0  0  0  0
  -16.5552   11.6174   46.7891 C   0  0  0  0  0  0  0  0  0  0  0  0
  -17.1347   11.1463   45.6627 N   0  0  0  0  0  0  0  0  0  0  0  0
  -15.4557   12.3128   46.7171 N   0  0  0  0  0  0  0  0  0  0  0  0
  -15.0087   12.6947   47.9344 C   0  0  0  0  0  0  0  0  0  0  0  0
  1  2  1  1
  1  3  2  0
  1  4  1  0
  1  5  1  0
  6  4  1  0
  6  7  1  1
  6  8  2  0
  6  9  1  0
  9 10  1  0
 10 11  1  0
 10 12  2  0
 10 13  1  0
  5 14  1  0
 15 14  1  1
 15 16  1  0
 15 17  1  0
 17 18  1  6
 17 19  1  0
 19 20  1  6
 16 21  1  0
 19 21  1  0
 21 22  1  1
 22 23  4  0
 23 24  4  0
 24 25  1  0
 24 26  4  0
 26 27  4  0
 27 28  2  0
 27 29  4  0
 29 30  4  0
 30 31  1  0
 30 32  4  0
 22 33  4  0
 26 33  4  0
 32 33  4  0
M  CHG  1  24   1
M  END
