
     RDKit          3D

 53 58  0  0  0  0  0  0  0  0999 V2000
    4.9591  -29.8588   -5.9652 P   0  0  2  0  0  5  0  0  0  0  0  0
    6.2276  -29.0855   -6.1010 O   0  0  0  0  0  0  0  0  0  0  0  0
    5.1888  -31.1680   -5.0557 O   0  0  0  0  0  0  0  0  0  0  0  0
    4.3811  -30.4544   -7.3396 O   0  0  0  0  0  0  0  0  0  0  0  0
    4.1733  -29.5083   -8.3852 C   0  0  0  0  0  0  0  0  0  0  0  0
    4.1613  -30.1710   -9.7595 C   0  0  1  0  0  0  0  0  0  0  0  0
    4.2178  -29.1421  -10.7723 O   0  0  0  0  0  0  0  0  0  0  0  0
    5.3384  -31.1120  -10.0037 C   0  0  1  0  0  0  0  0  0  0  0  0
    4.8741  -32.2871  -10.6869 O   0  0  0  0  0  0  0  0  0  0  0  0
    6.2357  -30.3161  -10.9342 C   0  0  1  0  0  0  0  0  0  0  0  0
    7.0372  -31.2013  -11.7154 O   0  0  0  0  0  0  0  0  0  0  0  0
    5.2037  -29.5337  -11.7501 C   0  0  2  0  0  0  0  0  0  0  0  0
    5.7222  -28.3592  -12.4314 N   0  0  0  0  0  0  0  0  0  0  0  0
    6.8285  -27.6352  -12.0576 C   0  0  0  0  0  0  0  0  0  0  0  0
    7.0725  -26.6356  -12.8780 N   0  0  0  0  0  0  0  0  0  0  0  0
    6.1250  -26.7616  -13.8720 C   0  0  0  0  0  0  0  0  0  0  0  0
    5.8702  -26.0113  -15.0330 C   0  0  0  0  0  0  0  0  0  0  0  0
    6.6145  -24.8959  -15.3962 N   0  0  0  0  0  0  0  0  0  0  0  0
    4.8365  -26.3739  -15.8246 N   0  0  0  0  0  0  0  0  0  0  0  0
    4.1186  -27.4625  -15.4760 C   0  0  0  0  0  0  0  0  0  0  0  0
    4.2660  -28.2498  -14.3947 N   0  0  0  0  0  0  0  0  0  0  0  0
    5.2844  -27.8355  -13.6223 C   0  0  0  0  0  0  0  0  0  0  0  0
    4.1287  -32.8861    3.1200 N   0  0  0  0  0  0  0  0  0  0  0  0
    3.2574  -33.5715    3.9083 C   0  0  0  0  0  0  0  0  0  0  0  0
    2.0412  -33.5397    3.7221 O   0  0  0  0  0  0  0  0  0  0  0  0
    3.8053  -34.3299    4.8945 N   0  0  0  0  0  0  0  0  0  0  0  0
    5.1419  -34.5570    5.0333 C   0  0  0  0  0  0  0  0  0  0  0  0
    5.5834  -35.3806    5.8321 O   0  0  0  0  0  0  0  0  0  0  0  0
    6.0434  -33.7668    4.1478 C   0  0  0  0  0  0  0  0  0  0  0  0
    7.4064  -33.9261    4.3057 N   0  0  0  0  0  0  0  0  0  0  0  0
    8.2745  -33.3923    3.3332 C   0  0  0  0  0  0  0  0  0  0  0  0
    9.6455  -33.6652    3.4023 C   0  0  0  0  0  0  0  0  0  0  0  0
   10.5366  -33.1217    2.4684 C   0  0  0  0  0  0  0  0  0  0  0  0
   12.0011  -33.4455    2.5739 C   0  0  0  0  0  0  0  0  0  0  0  0
   10.0399  -32.2704    1.4653 C   0  0  0  0  0  0  0  0  0  0  0  0
   10.9495  -31.6751    0.4241 C   0  0  0  0  0  0  0  0  0  0  0  0
    8.6605  -31.9802    1.4140 C   0  0  0  0  0  0  0  0  0  0  0  0
    7.7546  -32.5053    2.3473 C   0  0  0  0  0  0  0  0  0  0  0  0
    6.3494  -32.2272    2.3436 N   0  0  0  0  0  0  0  0  0  0  0  0
    5.4998  -32.9527    3.2116 C   0  0  0  0  0  0  0  0  0  0  0  0
    5.8500  -31.1184    1.5052 C   0  0  0  0  0  0  0  0  0  0  0  0
    5.3844  -31.6178    0.1149 C   0  0  2  0  0  0  0  0  0  0  0  0
    6.5399  -31.9613   -0.6645 O   0  0  0  0  0  0  0  0  0  0  0  0
    4.5402  -30.5351   -0.6060 C   0  0  2  0  0  0  0  0  0  0  0  0
    3.8791  -29.7372    0.3915 O   0  0  0  0  0  0  0  0  0  0  0  0
    3.5029  -31.1291   -1.5962 C   0  0  2  0  0  0  0  0  0  0  0  0
    4.0665  -32.1724   -2.4023 O   0  0  0  0  0  0  0  0  0  0  0  0
    2.8785  -30.0831   -2.5337 C   0  0  0  0  0  0  0  0  0  0  0  0
    2.3782  -30.6376   -3.7451 O   0  0  0  0  0  0  0  0  0  0  0  0
    2.2970  -29.6274   -4.9951 P   0  0  1  0  0  5  0  0  0  0  0  0
    1.6356  -30.2548   -6.1783 O   0  0  0  0  0  0  0  0  0  0  0  0
    1.5205  -28.3642   -4.3950 O   0  0  0  0  0  0  0  0  0  0  0  0
    3.7684  -29.1098   -5.2482 O   0  0  0  0  0  0  0  0  0  0  0  0
  1  2  2  0
  1  3  1  1
  1  4  1  0
  4  5  1  0
  6  5  1  1
  6  7  1  0
  6  8  1  0
  8  9  1  6
  8 10  1  0
 10 11  1  6
  7 12  1  0
 10 12  1  0
 12 13  1  1
 13 14  4  0
 14 15  4  0
 15 16  4  0
 16 17  4  0
 17 18  1  0
 17 19  4  0
 19 20  4  0
 20 21  4  0
 13 22  4  0
 16 22  4  0
 21 22  4  0
 23 24  4  0
 24 25  2  0
 24 26  4  0
 26 27  4  0
 27 28  2  0
 27 29  4  0
 29 30  1  0
 30 31  1  0
 31 32  4  0
 32 33  4  0
 33 34  1  0
 33 35  4  0
 35 36  1  0
 35 37  4  0
 31 38  4  0
 37 38  4  0
 38 39  1  0
 23 40  4  0
 29 40  4  0
 39 40  1  0
 39 41  1  0
 41 42  1  0
 42 43  1  6
 42 44  1  0
 44 45  1  1
 44 46  1  0
 46 47  1  6
 46 48  1  0
 48 49  1  0
 49 50  1  0
 50 51  2  0
 50 52  1  1
  1 53  1  0
 50 53  1  0
M  END
