7QTA_URI_A_407
     RDKit          3D

 17 18  0  0  0  0  0  0  0  0999 V2000
    2.2913  -12.9292    0.8642 N   0  0  0  0  0  0  0  0  0  0  0  0
    2.6575  -11.7225    1.3505 C   0  0  0  0  0  0  0  0  0  0  0  0
    1.8604  -10.9879    2.1500 N   0  0  0  0  0  0  0  0  0  0  0  0
    0.6373  -11.3916    2.5303 C   0  0  0  0  0  0  0  0  0  0  0  0
    0.2258  -12.6338    2.0466 C   0  0  0  0  0  0  0  0  0  0  0  0
    1.0516  -13.3538    1.2411 C   0  0  0  0  0  0  0  0  0  0  0  0
    3.7721  -11.2642    1.0540 O   0  0  0  0  0  0  0  0  0  0  0  0
   -0.0905  -10.6904    3.2770 O   0  0  0  0  0  0  0  0  0  0  0  0
    3.1150  -13.7352    0.0122 C   0  0  1  0  0  0  0  0  0  0  0  0
    3.9008  -14.8081    0.6496 C   0  0  1  0  0  0  0  0  0  0  0  0
    3.4037  -16.0459   -0.0698 C   0  0  1  0  0  0  0  0  0  0  0  0
    3.0191  -15.4712   -1.4138 C   0  0  2  0  0  0  0  0  0  0  0  0
    5.2739  -14.7356    0.3121 O   0  0  0  0  0  0  0  0  0  0  0  0
    4.3850  -17.0204   -0.1759 O   0  0  0  0  0  0  0  0  0  0  0  0
    2.3657  -14.3024   -1.0286 O   0  0  0  0  0  0  0  0  0  0  0  0
    1.9927  -16.3388   -2.1150 C   0  0  0  0  0  0  0  0  0  0  0  0
    0.7714  -16.3544   -1.4438 O   0  0  0  0  0  0  0  0  0  0  0  0
  1  2  1  0
  2  3  1  0
  3  4  1  0
  4  5  1  0
  1  6  1  0
  5  6  2  0
  2  7  2  0
  4  8  2  0
  9  1  1  1
  9 10  1  0
 10 11  1  0
 11 12  1  0
 10 13  1  6
 11 14  1  6
  9 15  1  0
 12 15  1  1
 12 16  1  0
 16 17  1  6
M  END
$$$$
