7CNQ_G8X_C_602
     RDKit          3D

 18 18  0  0  0  0  0  0  0  0999 V2000
   -2.0537    7.0056    7.0391 O   0  0  0  0  0  0  0  0  0  0  0  0
   -1.9498    6.4014    4.5467 O   0  0  0  0  0  0  0  0  0  0  0  0
   -3.4495    9.4496    5.7961 N   0  0  0  0  0  0  0  0  0  0  0  0
   -3.4152    7.2587    6.7939 C   0  0  1  0  0  0  0  0  0  0  0  0
   -3.9531    8.2254    7.8275 C   0  0  0  0  0  0  0  0  0  0  0  0
   -3.6953    9.6038    7.2334 C   0  0  0  0  0  0  0  0  0  0  0  0
   -3.6038    8.0258    5.4879 C   0  0  2  0  0  0  0  0  0  0  0  0
   -2.6426    7.6006    4.4138 C   0  0  0  0  0  0  0  0  0  0  0  0
   -2.4278    8.3424    3.4171 O   0  0  0  0  0  0  0  0  0  0  0  0
   -2.0178    6.3263    7.7623 H   0  0  0  0  0  0  0  0  0  0  0  0
   -1.2844    6.1051    3.8427 H   0  0  0  0  0  0  0  0  0  0  0  0
   -4.1699    9.9927    5.2635 H   0  0  0  0  0  0  0  0  0  0  0  0
   -3.9967    6.3071    6.7809 H   0  0  0  0  0  0  0  0  0  0  0  0
   -5.0483    8.0693    7.9473 H   0  0  0  0  0  0  0  0  0  0  0  0
   -3.4593    8.1045    8.8167 H   0  0  0  0  0  0  0  0  0  0  0  0
   -2.7920   10.0500    7.7022 H   0  0  0  0  0  0  0  0  0  0  0  0
   -4.5609   10.2775    7.4244 H   0  0  0  0  0  0  0  0  0  0  0  0
   -4.6409    7.8389    5.1213 H   0  0  0  0  0  0  0  0  0  0  0  0
  4  1  1  0
  4  5  1  0
  5  6  1  0
  3  6  1  0
  4  7  1  0
  3  7  1  0
  7  8  1  0
  2  8  1  0
  8  9  2  0
  1 10  1  0
  2 11  1  0
  3 12  1  0
  4 13  1  1
  5 14  1  0
  5 15  1  0
  6 16  1  0
  6 17  1  0
  7 18  1  1
M  END
