7DQL_4CL_A_302
     RDKit          3D

 14 14  0  0  0  0  0  0  0  0999 V2000
    9.7015    4.8613   10.4088 Cl  0  0  0  0  0  0  0  0  0  0  0  0
    8.8782    5.9573   11.5034 C   0  0  0  0  0  0  0  0  0  0  0  0
    8.6522    5.5813   12.8311 C   0  0  0  0  0  0  0  0  0  0  0  0
    7.9963    6.4540   13.7040 C   0  0  0  0  0  0  0  0  0  0  0  0
    7.5621    7.7096   13.2533 C   0  0  0  0  0  0  0  0  0  0  0  0
    6.9082    8.5792   14.1245 O   0  0  0  0  0  0  0  0  0  0  0  0
    7.7897    8.0875   11.9177 C   0  0  0  0  0  0  0  0  0  0  0  0
    8.4474    7.2083   11.0488 C   0  0  0  0  0  0  0  0  0  0  0  0
    7.3711    9.3281   11.4380 O   0  0  0  0  0  0  0  0  0  0  0  0
    8.9837    4.6143   13.1875 H   0  0  0  0  0  0  0  0  0  0  0  0
    7.8257    6.1542   14.7300 H   0  0  0  0  0  0  0  0  0  0  0  0
    6.7328    8.3295   15.0908 H   0  0  0  0  0  0  0  0  0  0  0  0
    8.6226    7.4993   10.0206 H   0  0  0  0  0  0  0  0  0  0  0  0
    6.8916    9.9985   12.0268 H   0  0  0  0  0  0  0  0  0  0  0  0
  1  2  1  0
  2  3  2  0
  3  4  1  0
  4  5  2  0
  5  6  1  0
  5  7  1  0
  2  8  1  0
  7  8  2  0
  7  9  1  0
  3 10  1  0
  4 11  1  0
  6 12  1  0
  8 13  1  0
  9 14  1  0
M  END
