1JJE_BYS_A_250
     RDKit          3D

 25 27  0  0  0  0  0  0  0  0999 V2000
   31.7769   22.4738   31.7758 C   0  0  1  0  0  0  0  0  0  0  0  0
   31.5696   21.8819   33.1166 C   0  0  0  0  0  0  0  0  0  0  0  0
   32.4960   21.4941   33.8713 O   0  0  0  0  0  0  0  0  0  0  0  0
   30.2591   21.7523   33.5573 O   0  0  0  0  0  0  0  0  0  0  0  0
   32.2305   23.8975   31.9622 C   0  0  0  0  0  0  0  0  0  0  0  0
   31.2545   24.7757   32.6054 C   0  0  0  0  0  0  0  0  0  0  0  0
   31.3768   25.2824   33.8892 C   0  0  0  0  0  0  0  0  0  0  0  0
   30.4281   26.1101   34.4573 C   0  0  0  0  0  0  0  0  0  0  0  0
   29.3030   26.4629   33.7395 C   0  0  0  0  0  0  0  0  0  0  0  0
   29.1489   25.9757   32.4565 C   0  0  0  0  0  0  0  0  0  0  0  0
   30.1099   25.1474   31.9036 C   0  0  0  0  0  0  0  0  0  0  0  0
   32.6179   21.6681   30.8477 C   0  0  1  0  0  0  0  0  0  0  0  0
   32.3245   20.2158   30.8460 C   0  0  0  0  0  0  0  0  0  0  0  0
   33.1505   19.3334   31.1937 O   0  0  0  0  0  0  0  0  0  0  0  0
   31.0573   19.8270   30.4327 O   0  0  0  0  0  0  0  0  0  0  0  0
   32.8090   22.2342   29.4918 C   0  0  0  0  0  0  0  0  0  0  0  0
   33.5769   21.4436   28.5332 C   0  0  0  0  0  0  0  0  0  0  0  0
   34.9478   21.2382   28.7468 C   0  0  0  0  0  0  0  0  0  0  0  0
   35.6873   20.4879   27.8497 C   0  0  0  0  0  0  0  0  0  0  0  0
   37.0406   20.1282   27.8119 O   0  0  0  0  0  0  0  0  0  0  0  0
   37.3172   19.8053   26.4413 C   0  0  0  0  0  0  0  0  0  0  0  0
   36.0582   19.2627   26.0560 O   0  0  0  0  0  0  0  0  0  0  0  0
   35.0420   19.9466   26.7393 C   0  0  0  0  0  0  0  0  0  0  0  0
   33.6945   20.1415   26.5185 C   0  0  0  0  0  0  0  0  0  0  0  0
   32.9498   20.8896   27.4100 C   0  0  0  0  0  0  0  0  0  0  0  0
  1  2  1  0
  2  3  2  0
  2  4  1  0
  1  5  1  1
  5  6  1  0
  6  7  2  0
  7  8  1  0
  8  9  2  0
  9 10  1  0
  6 11  1  0
 10 11  2  0
  1 12  1  0
 12 13  1  0
 13 14  2  0
 13 15  1  0
 12 16  1  6
 16 17  1  0
 17 18  2  0
 18 19  1  0
 19 20  1  0
 20 21  1  0
 21 22  1  0
 19 23  2  0
 22 23  1  0
 23 24  1  0
 17 25  1  0
 24 25  2  0
M  END
$$$$
