1JJE_BYS_A_250
     RDKit          3D

 25 27  0  0  0  0  0  0  0  0999 V2000
   36.1858   37.7655   41.3959 C   0  0  1  0  0  0  0  0  0  0  0  0
   36.8429   39.0598   41.1065 C   0  0  0  0  0  0  0  0  0  0  0  0
   38.0842   39.2143   40.9900 O   0  0  0  0  0  0  0  0  0  0  0  0
   36.0211   40.1692   40.9562 O   0  0  0  0  0  0  0  0  0  0  0  0
   36.2965   36.9038   40.1660 C   0  0  0  0  0  0  0  0  0  0  0  0
   35.8505   37.5387   38.9269 C   0  0  0  0  0  0  0  0  0  0  0  0
   36.5632   37.5336   37.7387 C   0  0  0  0  0  0  0  0  0  0  0  0
   36.1023   38.1477   36.5904 C   0  0  0  0  0  0  0  0  0  0  0  0
   34.8858   38.8001   36.5989 C   0  0  0  0  0  0  0  0  0  0  0  0
   34.1489   38.8248   37.7667 C   0  0  0  0  0  0  0  0  0  0  0  0
   34.6267   38.2040   38.9075 C   0  0  0  0  0  0  0  0  0  0  0  0
   36.6117   37.1044   42.6606 C   0  0  1  0  0  0  0  0  0  0  0  0
   36.7757   38.0189   43.8147 C   0  0  0  0  0  0  0  0  0  0  0  0
   35.9514   38.9189   44.1186 O   0  0  0  0  0  0  0  0  0  0  0  0
   37.9132   37.8562   44.5940 O   0  0  0  0  0  0  0  0  0  0  0  0
   35.9097   35.8444   42.9998 C   0  0  0  0  0  0  0  0  0  0  0  0
   36.3353   35.1393   44.2063 C   0  0  0  0  0  0  0  0  0  0  0  0
   35.9411   35.6197   45.4635 C   0  0  0  0  0  0  0  0  0  0  0  0
   36.3330   34.9600   46.6149 C   0  0  0  0  0  0  0  0  0  0  0  0
   36.0922   35.2086   47.9723 O   0  0  0  0  0  0  0  0  0  0  0  0
   37.1364   34.5264   48.6820 C   0  0  0  0  0  0  0  0  0  0  0  0
   37.3320   33.4094   47.8206 O   0  0  0  0  0  0  0  0  0  0  0  0
   37.1217   33.8172   46.4952 C   0  0  0  0  0  0  0  0  0  0  0  0
   37.5157   33.3351   45.2644 C   0  0  0  0  0  0  0  0  0  0  0  0
   37.1282   33.9886   44.1104 C   0  0  0  0  0  0  0  0  0  0  0  0
  1  2  1  0
  2  3  2  0
  2  4  1  0
  1  5  1  6
  5  6  1  0
  6  7  2  0
  7  8  1  0
  8  9  2  0
  9 10  1  0
  6 11  1  0
 10 11  2  0
  1 12  1  0
 12 13  1  0
 13 14  2  0
 13 15  1  0
 12 16  1  1
 16 17  1  0
 17 18  2  0
 18 19  1  0
 19 20  1  0
 20 21  1  0
 21 22  1  0
 19 23  2  0
 22 23  1  0
 23 24  1  0
 17 25  1  0
 24 25  2  0
M  END
$$$$
