1JJE_BYS_A_250
     RDKit          3D

 25 27  0  0  0  0  0  0  0  0999 V2000
   25.8212   -6.8913   16.1046 C   0  0  1  0  0  0  0  0  0  0  0  0
   25.7704   -5.5096   15.5762 C   0  0  0  0  0  0  0  0  0  0  0  0
   25.0050   -4.6126   16.0094 O   0  0  0  0  0  0  0  0  0  0  0  0
   26.6314   -5.1974   14.5323 O   0  0  0  0  0  0  0  0  0  0  0  0
   26.3752   -6.8330   17.5036 C   0  0  0  0  0  0  0  0  0  0  0  0
   27.7211   -6.2722   17.6102 C   0  0  0  0  0  0  0  0  0  0  0  0
   28.4672   -5.8063   16.5396 C   0  0  0  0  0  0  0  0  0  0  0  0
   29.7372   -5.2836   16.6874 C   0  0  0  0  0  0  0  0  0  0  0  0
   30.3106   -5.2105   17.9410 C   0  0  0  0  0  0  0  0  0  0  0  0
   29.5947   -5.6661   19.0307 C   0  0  0  0  0  0  0  0  0  0  0  0
   28.3234   -6.1867   18.8635 C   0  0  0  0  0  0  0  0  0  0  0  0
   24.5609   -7.6725   15.9653 C   0  0  1  0  0  0  0  0  0  0  0  0
   23.8720   -7.5129   14.6634 C   0  0  0  0  0  0  0  0  0  0  0  0
   24.3474   -7.9033   13.5664 O   0  0  0  0  0  0  0  0  0  0  0  0
   22.6296   -6.8934   14.6769 O   0  0  0  0  0  0  0  0  0  0  0  0
   24.6145   -9.0759   16.4378 C   0  0  0  0  0  0  0  0  0  0  0  0
   23.5294   -9.9656   16.0320 C   0  0  0  0  0  0  0  0  0  0  0  0
   22.4203  -10.1326   16.8739 C   0  0  0  0  0  0  0  0  0  0  0  0
   21.3829  -10.9687   16.5009 C   0  0  0  0  0  0  0  0  0  0  0  0
   20.1800  -11.3168   17.1289 O   0  0  0  0  0  0  0  0  0  0  0  0
   19.7801  -12.5613   16.5369 C   0  0  0  0  0  0  0  0  0  0  0  0
   20.2796  -12.3786   15.2159 O   0  0  0  0  0  0  0  0  0  0  0  0
   21.4669  -11.6345   15.2794 C   0  0  0  0  0  0  0  0  0  0  0  0
   22.5525  -11.4785   14.4429 C   0  0  0  0  0  0  0  0  0  0  0  0
   23.5920  -10.6452   14.8087 C   0  0  0  0  0  0  0  0  0  0  0  0
  1  2  1  0
  2  3  2  0
  2  4  1  0
  1  5  1  1
  5  6  1  0
  6  7  2  0
  7  8  1  0
  8  9  2  0
  9 10  1  0
  6 11  1  0
 10 11  2  0
  1 12  1  0
 12 13  1  0
 13 14  2  0
 13 15  1  0
 12 16  1  6
 16 17  1  0
 17 18  2  0
 18 19  1  0
 19 20  1  0
 20 21  1  0
 21 22  1  0
 19 23  2  0
 22 23  1  0
 23 24  1  0
 17 25  1  0
 24 25  2  0
M  END
$$$$
