1JJE_BYS_A_250
     RDKit          3D

 25 27  0  0  0  0  0  0  0  0999 V2000
   35.6446    7.4416   21.4482 C   0  0  1  0  0  0  0  0  0  0  0  0
   34.2225    7.0656   21.2828 C   0  0  0  0  0  0  0  0  0  0  0  0
   33.7691    5.9085   21.4669 O   0  0  0  0  0  0  0  0  0  0  0  0
   33.3417    8.0680   20.8983 O   0  0  0  0  0  0  0  0  0  0  0  0
   36.2035    7.7535   20.0852 C   0  0  0  0  0  0  0  0  0  0  0  0
   35.8811    6.7744   19.0485 C   0  0  0  0  0  0  0  0  0  0  0  0
   35.1186    5.6353   19.2508 C   0  0  0  0  0  0  0  0  0  0  0  0
   34.8388    4.7364   18.2401 C   0  0  0  0  0  0  0  0  0  0  0  0
   35.3259    4.9571   16.9674 C   0  0  0  0  0  0  0  0  0  0  0  0
   36.0898    6.0830   16.7303 C   0  0  0  0  0  0  0  0  0  0  0  0
   36.3599    6.9727   17.7553 C   0  0  0  0  0  0  0  0  0  0  0  0
   35.9125    8.4777   22.4839 C   0  0  1  0  0  0  0  0  0  0  0  0
   35.2419    8.2440   23.7842 C   0  0  0  0  0  0  0  0  0  0  0  0
   35.3092    7.1628   24.4232 O   0  0  0  0  0  0  0  0  0  0  0  0
   34.5006    9.2929   24.3112 O   0  0  0  0  0  0  0  0  0  0  0  0
   37.3234    8.9106   22.6156 C   0  0  0  0  0  0  0  0  0  0  0  0
   37.6047   10.0278   23.5137 C   0  0  0  0  0  0  0  0  0  0  0  0
   36.9659   11.2591   23.3070 C   0  0  0  0  0  0  0  0  0  0  0  0
   37.2191   12.3251   24.1520 C   0  0  0  0  0  0  0  0  0  0  0  0
   36.7353   13.6394   24.1830 O   0  0  0  0  0  0  0  0  0  0  0  0
   37.7043   14.3913   24.9279 C   0  0  0  0  0  0  0  0  0  0  0  0
   38.1397   13.3932   25.8456 O   0  0  0  0  0  0  0  0  0  0  0  0
   38.1162   12.1464   25.2035 C   0  0  0  0  0  0  0  0  0  0  0  0
   38.7506   10.9403   25.4170 C   0  0  0  0  0  0  0  0  0  0  0  0
   38.5026    9.8715   24.5772 C   0  0  0  0  0  0  0  0  0  0  0  0
  1  2  1  0
  2  3  2  0
  2  4  1  0
  1  5  1  6
  5  6  1  0
  6  7  2  0
  7  8  1  0
  8  9  2  0
  9 10  1  0
  6 11  1  0
 10 11  2  0
  1 12  1  0
 12 13  1  0
 13 14  2  0
 13 15  1  0
 12 16  1  1
 16 17  1  0
 17 18  2  0
 18 19  1  0
 19 20  1  0
 20 21  1  0
 21 22  1  0
 19 23  2  0
 22 23  1  0
 23 24  1  0
 17 25  1  0
 24 25  2  0
M  END
$$$$
