1JJE_BYS_A_250
     RDKit          3D

 25 27  0  0  0  0  0  0  0  0999 V2000
   26.0387  -11.5895   13.5340 C   0  0  1  0  0  0  0  0  0  0  0  0
   25.2313  -10.4211   13.1171 C   0  0  0  0  0  0  0  0  0  0  0  0
   25.4935   -9.2318   13.4254 O   0  0  0  0  0  0  0  0  0  0  0  0
   24.1122  -10.6702   12.3334 O   0  0  0  0  0  0  0  0  0  0  0  0
   27.4526  -11.1212   13.7554 C   0  0  0  0  0  0  0  0  0  0  0  0
   28.1599  -10.7042   12.5458 C   0  0  0  0  0  0  0  0  0  0  0  0
   29.4730  -11.0317   12.2489 C   0  0  0  0  0  0  0  0  0  0  0  0
   30.1019  -10.6148   11.0920 C   0  0  0  0  0  0  0  0  0  0  0  0
   29.4181   -9.8396   10.1770 C   0  0  0  0  0  0  0  0  0  0  0  0
   28.1072   -9.4944   10.4412 C   0  0  0  0  0  0  0  0  0  0  0  0
   27.4934   -9.9213   11.6058 C   0  0  0  0  0  0  0  0  0  0  0  0
   25.4663  -12.3931   14.6496 C   0  0  1  0  0  0  0  0  0  0  0  0
   25.9521  -13.7910   14.7210 C   0  0  0  0  0  0  0  0  0  0  0  0
   27.1419  -14.1072   14.9787 O   0  0  0  0  0  0  0  0  0  0  0  0
   25.0236  -14.7962   14.4864 O   0  0  0  0  0  0  0  0  0  0  0  0
   25.4076  -11.7195   15.9680 C   0  0  0  0  0  0  0  0  0  0  0  0
   24.3972  -12.1811   16.9165 C   0  0  0  0  0  0  0  0  0  0  0  0
   23.2648  -11.3905   17.1602 C   0  0  0  0  0  0  0  0  0  0  0  0
   22.2972  -11.8167   18.0528 C   0  0  0  0  0  0  0  0  0  0  0  0
   21.0917  -11.2455   18.4803 O   0  0  0  0  0  0  0  0  0  0  0  0
   20.7941  -11.8665   19.7394 C   0  0  0  0  0  0  0  0  0  0  0  0
   21.3384  -13.1625   19.5108 O   0  0  0  0  0  0  0  0  0  0  0  0
   22.4744  -13.0396   18.6973 C   0  0  0  0  0  0  0  0  0  0  0  0
   23.5837  -13.8260   18.4659 C   0  0  0  0  0  0  0  0  0  0  0  0
   24.5539  -13.4069   17.5760 C   0  0  0  0  0  0  0  0  0  0  0  0
  1  2  1  0
  2  3  2  0
  2  4  1  0
  1  5  1  1
  5  6  1  0
  6  7  2  0
  7  8  1  0
  8  9  2  0
  9 10  1  0
  6 11  1  0
 10 11  2  0
  1 12  1  0
 12 13  1  0
 13 14  2  0
 13 15  1  0
 12 16  1  1
 16 17  1  0
 17 18  2  0
 18 19  1  0
 19 20  1  0
 20 21  1  0
 21 22  1  0
 19 23  2  0
 22 23  1  0
 23 24  1  0
 17 25  1  0
 24 25  2  0
M  END
$$$$
