1JJE_BYS_A_250
     RDKit          3D

 25 27  0  0  0  0  0  0  0  0999 V2000
   44.6273   23.5022   39.0575 C   0  0  1  0  0  0  0  0  0  0  0  0
   45.8618   23.4837   39.8738 C   0  0  0  0  0  0  0  0  0  0  0  0
   46.8111   22.6782   39.7055 O   0  0  0  0  0  0  0  0  0  0  0  0
   45.9649   24.4247   40.8899 O   0  0  0  0  0  0  0  0  0  0  0  0
   44.9473   24.1721   37.7474 C   0  0  0  0  0  0  0  0  0  0  0  0
   45.3418   25.5759   37.8537 C   0  0  0  0  0  0  0  0  0  0  0  0
   46.6519   26.0237   37.9086 C   0  0  0  0  0  0  0  0  0  0  0  0
   46.9785   27.3620   38.0090 C   0  0  0  0  0  0  0  0  0  0  0  0
   45.9794   28.3132   38.0585 C   0  0  0  0  0  0  0  0  0  0  0  0
   44.6620   27.9019   38.0060 C   0  0  0  0  0  0  0  0  0  0  0  0
   44.3536   26.5565   37.9054 C   0  0  0  0  0  0  0  0  0  0  0  0
   43.9266   22.1939   38.9338 C   0  0  1  0  0  0  0  0  0  0  0  0
   43.9438   21.3619   40.1596 C   0  0  0  0  0  0  0  0  0  0  0  0
   43.6489   21.7932   41.3037 O   0  0  0  0  0  0  0  0  0  0  0  0
   44.3098   20.0304   40.0153 O   0  0  0  0  0  0  0  0  0  0  0  0
   42.6069   22.2283   38.2611 C   0  0  0  0  0  0  0  0  0  0  0  0
   42.0685   20.9630   37.7680 C   0  0  0  0  0  0  0  0  0  0  0  0
   42.7359   20.2809   36.7403 C   0  0  0  0  0  0  0  0  0  0  0  0
   42.2402   19.0793   36.2660 C   0  0  0  0  0  0  0  0  0  0  0  0
   42.6890   18.2012   35.2711 O   0  0  0  0  0  0  0  0  0  0  0  0
   41.5403   17.4315   34.8871 C   0  0  0  0  0  0  0  0  0  0  0  0
   40.8556   17.3700   36.1343 O   0  0  0  0  0  0  0  0  0  0  0  0
   41.0723   18.5688   36.8296 C   0  0  0  0  0  0  0  0  0  0  0  0
   40.4069   19.2303   37.8406 C   0  0  0  0  0  0  0  0  0  0  0  0
   40.8961   20.4306   38.3193 C   0  0  0  0  0  0  0  0  0  0  0  0
  1  2  1  0
  2  3  2  0
  2  4  1  0
  1  5  1  6
  5  6  1  0
  6  7  2  0
  7  8  1  0
  8  9  2  0
  9 10  1  0
  6 11  1  0
 10 11  2  0
  1 12  1  0
 12 13  1  0
 13 14  2  0
 13 15  1  0
 12 16  1  1
 16 17  1  0
 17 18  2  0
 18 19  1  0
 19 20  1  0
 20 21  1  0
 21 22  1  0
 19 23  2  0
 22 23  1  0
 23 24  1  0
 17 25  1  0
 24 25  2  0
M  END
$$$$
