1JJE_BYS_A_250
     RDKit          3D

 25 27  0  0  0  0  0  0  0  0999 V2000
   41.3006   23.1746   40.1257 C   0  0  1  0  0  0  0  0  0  0  0  0
   41.6320   21.7943   40.5449 C   0  0  0  0  0  0  0  0  0  0  0  0
   40.9951   20.7724   40.1868 O   0  0  0  0  0  0  0  0  0  0  0  0
   42.7218   21.6322   41.3903 O   0  0  0  0  0  0  0  0  0  0  0  0
   41.8013   23.3650   38.7184 C   0  0  0  0  0  0  0  0  0  0  0  0
   43.2266   23.0992   38.5305 C   0  0  0  0  0  0  0  0  0  0  0  0
   44.2468   23.9261   38.9723 C   0  0  0  0  0  0  0  0  0  0  0  0
   45.5821   23.6346   38.7722 C   0  0  0  0  0  0  0  0  0  0  0  0
   45.9430   22.4794   38.1082 C   0  0  0  0  0  0  0  0  0  0  0  0
   44.9515   21.6321   37.6542 C   0  0  0  0  0  0  0  0  0  0  0  0
   43.6188   21.9405   37.8638 C   0  0  0  0  0  0  0  0  0  0  0  0
   39.8854   23.5836   40.3445 C   0  0  1  0  0  0  0  0  0  0  0  0
   39.2683   23.0485   41.5806 C   0  0  0  0  0  0  0  0  0  0  0  0
   39.7346   23.2342   42.7339 O   0  0  0  0  0  0  0  0  0  0  0  0
   38.1076   22.3007   41.4357 O   0  0  0  0  0  0  0  0  0  0  0  0
   39.5807   25.0133   40.1026 C   0  0  0  0  0  0  0  0  0  0  0  0
   38.1745   25.3941   39.9958 C   0  0  0  0  0  0  0  0  0  0  0  0
   37.7904   26.7110   40.2877 C   0  0  0  0  0  0  0  0  0  0  0  0
   36.4628   27.0875   40.1869 C   0  0  0  0  0  0  0  0  0  0  0  0
   35.8085   28.3055   40.4117 O   0  0  0  0  0  0  0  0  0  0  0  0
   34.4328   27.9691   40.6433 C   0  0  0  0  0  0  0  0  0  0  0  0
   34.3095   26.8330   39.7934 O   0  0  0  0  0  0  0  0  0  0  0  0
   35.5257   26.1344   39.7918 C   0  0  0  0  0  0  0  0  0  0  0  0
   35.8912   24.8363   39.5021 C   0  0  0  0  0  0  0  0  0  0  0  0
   37.2150   24.4533   39.6006 C   0  0  0  0  0  0  0  0  0  0  0  0
  1  2  1  0
  2  3  2  0
  2  4  1  0
  1  5  1  6
  5  6  1  0
  6  7  2  0
  7  8  1  0
  8  9  2  0
  9 10  1  0
  6 11  1  0
 10 11  2  0
  1 12  1  0
 12 13  1  0
 13 14  2  0
 13 15  1  0
 12 16  1  1
 16 17  1  0
 17 18  2  0
 18 19  1  0
 19 20  1  0
 20 21  1  0
 21 22  1  0
 19 23  2  0
 22 23  1  0
 23 24  1  0
 17 25  1  0
 24 25  2  0
M  END
$$$$
