7A1P_QW2_A_505
     RDKit          3D

 25 24  0  0  0  0  0  0  0  0999 V2000
   19.6342  -24.0540    8.4975 C   0  0  1  0  0  0  0  0  0  0  0  0
   19.9393  -23.5942    7.0595 C   0  0  2  0  0  0  0  0  0  0  0  0
   20.1163  -24.7605    6.0877 C   0  0  2  0  0  0  0  0  0  0  0  0
   22.3986  -24.8005   10.3052 C   0  0  0  0  0  0  0  0  0  0  0  0
   18.3748  -26.2267    8.3649 C   0  0  0  0  0  0  0  0  0  0  0  0
   19.6970  -25.5883    8.6987 C   0  0  2  0  0  0  0  0  0  0  0  0
   20.0822  -25.9517   10.1482 C   0  0  2  0  0  0  0  0  0  0  0  0
   21.0058  -24.9342   10.7609 C   0  0  0  0  0  0  0  0  0  0  0  0
   20.5713  -24.1704   11.6649 O   0  0  0  0  0  0  0  0  0  0  0  0
   23.0910  -25.8301   10.0847 O   0  0  0  0  0  0  0  0  0  0  0  0
   22.9574  -23.5398   10.1150 O   0  0  0  0  0  0  0  0  0  0  0  0
   18.2866  -27.0211    7.3905 O   0  0  0  0  0  0  0  0  0  0  0  0
   17.2480  -25.9438    9.1320 O   0  0  0  0  0  0  0  0  0  0  0  0
   20.3534  -23.5552    9.1824 H   0  0  0  0  0  0  0  0  0  0  0  0
   18.6197  -23.6898    8.7726 H   0  0  0  0  0  0  0  0  0  0  0  0
   20.8851  -23.0104    7.0760 H   0  0  0  0  0  0  0  0  0  0  0  0
   19.1417  -22.9166    6.6870 H   0  0  0  0  0  0  0  0  0  0  0  0
   21.1988  -24.9687    5.9553 H   0  0  0  0  0  0  0  0  0  0  0  0
   19.6911  -24.5113    5.0936 H   0  0  0  0  0  0  0  0  0  0  0  0
   19.6263  -25.6756    6.4830 H   0  0  0  0  0  0  0  0  0  0  0  0
   20.4739  -26.0099    8.0244 H   0  0  0  0  0  0  0  0  0  0  0  0
   20.5891  -26.9419   10.1650 H   0  0  0  0  0  0  0  0  0  0  0  0
   19.1661  -26.0465   10.7726 H   0  0  0  0  0  0  0  0  0  0  0  0
   23.9290  -23.3624   10.3399 H   0  0  0  0  0  0  0  0  0  0  0  0
   16.3510  -26.3587    8.9101 H   0  0  0  0  0  0  0  0  0  0  0  0
  1  2  1  0
  2  3  1  0
  6  1  1  0
  5  6  1  0
  6  7  1  0
  7  8  1  0
  4  8  1  0
  8  9  2  0
  4 10  2  0
  4 11  1  0
  5 12  2  0
  5 13  1  0
  1 14  1  1
  1 15  1  0
  2 16  1  1
  2 17  1  0
  3 18  1  6
  3 19  1  0
  3 20  1  0
  6 21  1  6
  7 22  1  6
  7 23  1  0
 11 24  1  0
 13 25  1  0
M  END
