7F5D_EUO_A_201
     RDKit          3D

 35 37  0  0  0  0  0  0  0  0999 V2000
   10.0440   -5.0367   33.4023 C   0  0  0  0  0  0  0  0  0  0  0  0
   11.6450   -4.2258   32.1082 C   0  0  0  0  0  0  0  0  0  0  0  0
    3.7463   -8.3313   28.7685 C   0  0  2  0  0  0  0  0  0  0  0  0
    4.8755   -5.8497   29.7059 C   0  0  0  0  0  0  0  0  0  0  0  0
    5.8955   -4.1188   28.4555 C   0  0  0  0  0  0  0  0  0  0  0  0
    6.9528   -4.0771   29.3711 C   0  0  0  0  0  0  0  0  0  0  0  0
    6.9429   -4.9630   30.4612 C   0  0  0  0  0  0  0  0  0  0  0  0
    8.0306   -4.9733   31.4725 C   0  0  0  0  0  0  0  0  0  0  0  0
    9.3390   -4.5342   31.1485 C   0  0  0  0  0  0  0  0  0  0  0  0
   10.3136   -4.5794   32.1420 C   0  0  0  0  0  0  0  0  0  0  0  0
    8.7772   -5.4864   33.7612 C   0  0  0  0  0  0  0  0  0  0  0  0
    7.7663   -5.4558   32.7839 C   0  0  0  0  0  0  0  0  0  0  0  0
   12.1245   -4.4927   33.3866 C   0  0  0  0  0  0  0  0  0  0  0  0
    4.7732   -3.2087   26.3819 C   0  0  1  0  0  0  0  0  0  0  0  0
    4.8820   -5.0061   28.6428 N   0  0  0  0  0  0  0  0  0  0  0  0
    5.8970   -5.8231   30.5998 N   0  0  0  0  0  0  0  0  0  0  0  0
   11.1423   -4.9884   34.1736 N   0  0  0  0  0  0  0  0  0  0  0  0
    5.8789   -3.2281   27.3317 N   0  0  0  0  0  0  0  0  0  0  0  0
    2.2508   -6.2878   29.6664 O   0  0  0  0  0  0  0  0  0  0  0  0
    3.5705   -7.5131   31.3217 O   0  0  0  0  0  0  0  0  0  0  0  0
    3.5586   -6.9851   29.9149 S   0  0  1  0  0  6  0  0  0  0  0  0
   12.2001   -3.8273   31.2692 H   0  0  0  0  0  0  0  0  0  0  0  0
    4.7940   -8.6958   28.7927 H   0  0  0  0  0  0  0  0  0  0  0  0
    3.5015   -7.9829   27.7439 H   0  0  0  0  0  0  0  0  0  0  0  0
    3.0618   -9.1577   29.0503 H   0  0  0  0  0  0  0  0  0  0  0  0
    7.7458   -3.3526   29.2409 H   0  0  0  0  0  0  0  0  0  0  0  0
    9.6011   -4.1932   30.1559 H   0  0  0  0  0  0  0  0  0  0  0  0
    8.5749   -5.8496   34.7605 H   0  0  0  0  0  0  0  0  0  0  0  0
    6.7751   -5.7984   33.0537 H   0  0  0  0  0  0  0  0  0  0  0  0
   13.1416   -4.3331   33.7197 H   0  0  0  0  0  0  0  0  0  0  0  0
    3.8283   -2.9595   26.9091 H   0  0  0  0  0  0  0  0  0  0  0  0
    4.9607   -2.4428   25.6000 H   0  0  0  0  0  0  0  0  0  0  0  0
    4.6770   -4.2022   25.8955 H   0  0  0  0  0  0  0  0  0  0  0  0
   11.2261   -5.2764   35.1739 H   0  0  0  0  0  0  0  0  0  0  0  0
    6.6783   -2.5716   27.1807 H   0  0  0  0  0  0  0  0  0  0  0  0
  5  6  2  0
  6  7  1  0
  7  8  1  0
  8  9  1  0
  2 10  1  0
  9 10  2  0
  1 10  1  0
  1 11  2  0
  8 12  2  0
 11 12  1  0
  2 13  2  0
  4 15  2  0
  5 15  1  0
  4 16  1  0
  7 16  2  0
 13 17  1  0
  1 17  1  0
  5 18  1  0
 14 18  1  0
  3 21  1  0
 20 21  2  0
 19 21  2  0
 21  4  1  1
  2 22  1  0
  3 23  1  6
  3 24  1  0
  3 25  1  0
  6 26  1  0
  9 27  1  0
 11 28  1  0
 12 29  1  0
 13 30  1  0
 14 31  1  1
 14 32  1  0
 14 33  1  0
 17 34  1  0
 18 35  1  0
M  END
