7BLA_WCS_A_1901
     RDKit          3D

 62 64  0  0  0  0  0  0  0  0999 V2000
    3.4180   -3.9533   -3.0379 C   0  0  0  0  0  0  0  0  0  0  0  0
    4.0874   -3.1833   -4.1233 C   0  0  0  0  0  0  0  0  0  0  0  0
    5.5875   -1.4500   -4.7339 C   0  0  0  0  0  0  0  0  0  0  0  0
    7.3829    0.5991   -5.6926 C   0  0  0  0  0  0  0  0  0  0  0  0
    7.8032   -0.7631   -3.4236 O   0  0  0  0  0  0  0  0  0  0  0  0
    5.9519    0.8390   -3.4246 O   0  0  0  0  0  0  0  0  0  0  0  0
    4.5318   -2.6893   -6.4545 C   0  0  0  0  0  0  0  0  0  0  0  0
    4.1407   -5.6848    4.2363 C   0  0  0  0  0  0  0  0  0  0  0  0
    3.4074   -6.5800    2.0877 C   0  0  0  0  0  0  0  0  0  0  0  0
    2.3767   -7.6711    1.7427 C   0  0  0  0  0  0  0  0  0  0  0  0
    1.7696   -7.5025    0.3392 C   0  0  0  0  0  0  0  0  0  0  0  0
    2.1090   -5.3760   -0.9727 C   0  0  0  0  0  0  0  0  0  0  0  0
    2.8494   -6.0578   -1.9457 C   0  0  0  0  0  0  0  0  0  0  0  0
    3.4914   -5.3609   -2.9725 C   0  0  0  0  0  0  0  0  0  0  0  0
    4.6980   -4.1143   -8.5912 C   0  0  0  0  0  0  0  0  0  0  0  0
    4.1064   -5.3473   -7.8966 C   0  0  0  0  0  0  0  0  0  0  0  0
    4.6962   -5.5545   -6.4957 C   0  0  0  0  0  0  0  0  0  0  0  0
    4.3343   -3.5013   -5.1100 C   0  0  0  0  0  0  0  0  0  0  0  0
    5.0620   -2.3769   -4.7822 C   0  0  0  0  0  0  0  0  0  0  0  0
    6.2772   -2.5448   -5.4200 C   0  0  0  0  0  0  0  0  0  0  0  0
    3.8725   -3.4644   -5.4844 C   0  0  0  0  0  0  0  0  0  0  0  0
    2.6595   -3.2714   -2.0635 C   0  0  0  0  0  0  0  0  0  0  0  0
    2.0071   -3.9729   -1.0459 C   0  0  0  0  0  0  0  0  0  0  0  0
    2.5637   -4.4604    2.8947 C   0  0  0  0  0  0  0  0  0  0  0  0
    3.0169   -5.8052    3.2885 N   0  0  0  0  0  0  0  0  0  0  0  0
    4.9482   -2.1843   -3.7897 N   0  0  0  0  0  0  0  0  0  0  0  0
    5.3726   -1.7023   -6.0496 N   0  0  0  0  0  0  0  0  0  0  0  0
    4.3385   -2.8956   -7.8660 N   0  0  0  0  0  0  0  0  0  0  0  0
    5.0968   -4.2818   -5.8989 N   0  0  0  0  0  4  0  0  0  0  0  0
    6.2755   -3.7106   -6.0971 N   0  0  0  0  0  0  0  0  0  0  0  0
    1.4936   -6.1332    0.0371 O   0  0  0  0  0  0  0  0  0  0  0  0
    6.6915   -0.1778   -4.2486 S   0  0  2  0  0  6  0  0  0  0  0  0
    7.8776   -0.1668   -6.3270 H   0  0  0  0  0  0  0  0  0  0  0  0
    6.5719    1.0912   -6.2731 H   0  0  0  0  0  0  0  0  0  0  0  0
    8.1288    1.3625   -5.3828 H   0  0  0  0  0  0  0  0  0  0  0  0
    5.0371   -5.2378    3.7518 H   0  0  0  0  0  0  0  0  0  0  0  0
    3.8501   -5.0514    5.1019 H   0  0  0  0  0  0  0  0  0  0  0  0
    4.4079   -6.6768    4.6529 H   0  0  0  0  0  0  0  0  0  0  0  0
    3.4907   -5.9111    1.2004 H   0  0  0  0  0  0  0  0  0  0  0  0
    4.4090   -7.0507    2.2262 H   0  0  0  0  0  0  0  0  0  0  0  0
    2.8953   -8.6546    1.7731 H   0  0  0  0  0  0  0  0  0  0  0  0
    1.5807   -7.7163    2.5113 H   0  0  0  0  0  0  0  0  0  0  0  0
    2.4908   -7.8862   -0.4140 H   0  0  0  0  0  0  0  0  0  0  0  0
    0.8452   -8.1131    0.2413 H   0  0  0  0  0  0  0  0  0  0  0  0
    2.9247   -7.1389   -1.9077 H   0  0  0  0  0  0  0  0  0  0  0  0
    4.0198   -5.9351   -3.7229 H   0  0  0  0  0  0  0  0  0  0  0  0
    4.3662   -4.0456   -9.6494 H   0  0  0  0  0  0  0  0  0  0  0  0
    5.8057   -4.2079   -8.6017 H   0  0  0  0  0  0  0  0  0  0  0  0
    3.0015   -5.2358   -7.8240 H   0  0  0  0  0  0  0  0  0  0  0  0
    4.3122   -6.2563   -8.5008 H   0  0  0  0  0  0  0  0  0  0  0  0
    5.5714   -6.2400   -6.5515 H   0  0  0  0  0  0  0  0  0  0  0  0
    3.9337   -6.0389   -5.8475 H   0  0  0  0  0  0  0  0  0  0  0  0
    3.3231   -3.7296   -4.8001 H   0  0  0  0  0  0  0  0  0  0  0  0
    4.7501   -1.5456   -4.1641 H   0  0  0  0  0  0  0  0  0  0  0  0
    7.1136   -1.8570   -5.3937 H   0  0  0  0  0  0  0  0  0  0  0  0
    3.2289   -4.2756   -5.7803 H   0  0  0  0  0  0  0  0  0  0  0  0
    2.5726   -2.1900   -2.0831 H   0  0  0  0  0  0  0  0  0  0  0  0
    1.4273   -3.4108   -0.3251 H   0  0  0  0  0  0  0  0  0  0  0  0
    3.3580   -3.9150    2.3355 H   0  0  0  0  0  0  0  0  0  0  0  0
    1.6556   -4.5348    2.2581 H   0  0  0  0  0  0  0  0  0  0  0  0
    2.2776   -3.8688    3.7915 H   0  0  0  0  0  0  0  0  0  0  0  0
    3.8377   -2.1491   -8.4007 H   0  0  0  0  0  0  0  0  0  0  0  0
  1  2  1  0
  9 10  1  0
 10 11  1  0
 12 13  4  0
 13 14  4  0
  1 14  4  0
 15 16  1  0
 16 17  1  0
 18 19  4  0
 19 20  4  0
  2 21  4  0
  7 21  4  0
  1 22  4  0
 12 23  4  0
 22 23  4  0
 24 25  1  0
  8 25  1  0
  9 25  1  0
  2 26  4  0
  3 26  4  0
  7 27  4  0
  3 27  4  0
 15 28  1  0
  7 28  1  0
 17 29  1  0
 18 29  4  0
 20 30  4  0
 29 30  4  0
 11 31  1  0
 12 31  1  0
  3 32  1  0
 32  4  1  1
  6 32  2  0
  5 32  2  0
  4 33  1  0
  4 34  1  0
  4 35  1  0
  8 36  1  0
  8 37  1  0
  8 38  1  0
  9 39  1  0
  9 40  1  0
 10 41  1  0
 10 42  1  0
 11 43  1  0
 11 44  1  0
 13 45  1  0
 14 46  1  0
 15 47  1  0
 15 48  1  0
 16 49  1  0
 16 50  1  0
 17 51  1  0
 17 52  1  0
 18 53  1  0
 19 54  1  0
 20 55  1  0
 21 56  1  0
 22 57  1  0
 23 58  1  0
 24 59  1  0
 24 60  1  0
 24 61  1  0
 28 62  1  0
M  CHG  1  29   1
M  END
