7Z7F_IF3_A_606
     RDKit          3D

 26 27  0  0  0  0  0  0  0  0999 V2000
   20.4635   37.1101    6.8863 C   0  0  2  0  0  0  0  0  0  0  0  0
   20.4061   32.3261    1.7534 C   0  0  2  0  0  0  0  0  0  0  0  0
   19.8946   34.6180    2.6818 C   0  0  0  0  0  0  0  0  0  0  0  0
   20.3708   35.7218    1.9834 C   0  0  0  0  0  0  0  0  0  0  0  0
   20.7487   36.8337    2.6535 C   0  0  0  0  0  0  0  0  0  0  0  0
   20.2158   35.8560    4.7067 C   0  0  0  0  0  0  0  0  0  0  0  0
   20.9905   37.1729    0.5726 C   0  0  0  0  0  0  0  0  0  0  0  0
   21.5573   39.1375    2.0566 C   0  0  1  0  0  0  0  0  0  0  0  0
   19.4812   33.4240    2.0048 N   0  0  0  0  0  0  0  0  0  0  0  0
   20.6804   36.9349    4.0023 N   0  0  0  0  0  0  0  0  0  0  0  0
   19.8306   34.7158    4.0453 N   0  0  0  0  0  0  0  0  0  0  0  0
   20.1265   35.9078    6.1344 N   0  0  0  0  0  0  0  0  0  0  0  0
   21.1592   37.7623    1.7834 N   0  0  0  0  0  0  0  0  0  0  0  0
   20.5096   35.9012    0.6555 N   0  0  0  0  0  0  0  0  0  0  0  0
   21.5667   37.2124    6.9594 H   0  0  0  0  0  0  0  0  0  0  0  0
   20.0403   37.0447    7.9108 H   0  0  0  0  0  0  0  0  0  0  0  0
   20.0534   38.0041    6.3707 H   0  0  0  0  0  0  0  0  0  0  0  0
   21.1855   32.3020    2.5439 H   0  0  0  0  0  0  0  0  0  0  0  0
   20.8986   32.4654    0.7679 H   0  0  0  0  0  0  0  0  0  0  0  0
   19.8540   31.3628    1.7458 H   0  0  0  0  0  0  0  0  0  0  0  0
   21.2033   37.6650   -0.3677 H   0  0  0  0  0  0  0  0  0  0  0  0
   22.1044   39.1918    3.0215 H   0  0  0  0  0  0  0  0  0  0  0  0
   22.2168   39.5018    1.2416 H   0  0  0  0  0  0  0  0  0  0  0  0
   20.6596   39.7881    2.1207 H   0  0  0  0  0  0  0  0  0  0  0  0
   18.4925   33.3296    1.6789 H   0  0  0  0  0  0  0  0  0  0  0  0
   19.8102   35.0585    6.6546 H   0  0  0  0  0  0  0  0  0  0  0  0
  3  4  2  0
  4  5  1  0
  2  9  1  0
  3  9  1  0
  5 10  2  0
  6 10  1  0
  3 11  1  0
  6 11  2  0
  6 12  1  0
  1 12  1  0
  7 13  1  0
  5 13  1  0
  8 13  1  0
  7 14  2  0
  4 14  1  0
  1 15  1  1
  1 16  1  0
  1 17  1  0
  2 18  1  1
  2 19  1  0
  2 20  1  0
  7 21  1  0
  8 22  1  1
  8 23  1  0
  8 24  1  0
  9 25  1  0
 12 26  1  0
M  END
