
     RDKit          3D

 11 12  0  0  0  0  0  0  0  0999 V2000
  -83.1847  -28.8057  -34.0325 C   0  0  0  0  0  0  0  0  0  0  0  0
  -84.8931  -27.5460  -33.3653 C   0  0  0  0  0  0  0  0  0  0  0  0
  -85.2237  -27.3122  -34.6853 C   0  0  0  0  0  0  0  0  0  0  0  0
  -84.4641  -27.8771  -35.6764 C   0  0  0  0  0  0  0  0  0  0  0  0
  -86.6103  -26.2841  -33.3185 C   0  0  0  0  0  0  0  0  0  0  0  0
  -83.4180  -28.6434  -35.3460 N   0  0  0  0  0  0  0  0  0  0  0  0
  -83.8539  -28.3069  -32.9870 N   0  0  0  0  0  0  0  0  0  0  0  0
  -86.3240  -26.5035  -34.6390 N   0  0  0  0  0  0  0  0  0  0  0  0
  -85.7610  -26.9026  -32.5273 N   0  0  0  0  0  0  0  0  0  0  0  0
  -81.8397  -29.7913  -33.6467 Cl  0  0  0  0  0  0  0  0  0  0  0  0
  -84.7716  -27.6626  -37.3379 Cl  0  0  0  0  0  0  0  0  0  0  0  0
  2  3  4  0
  3  4  4  0
  1  6  4  0
  4  6  4  0
  1  7  4  0
  2  7  4  0
  3  8  4  0
  5  8  4  0
  2  9  4  0
  5  9  4  0
  1 10  1  0
  4 11  1  0
M  END
