1L2S_STC_B_3115
     RDKit          3D

 19 20  0  0  0  0  0  0  0  0999 V2000
   50.9460   -3.6190   23.5860 N   0  0  0  0  0  0  0  0  0  0  0  0
   51.1410   -3.9620   22.2510 C   0  0  0  0  0  0  0  0  0  0  0  0
   50.3880   -3.3260   21.2360 C   0  0  0  0  0  0  0  0  0  0  0  0
   52.1200   -4.9330   21.9250 C   0  0  0  0  0  0  0  0  0  0  0  0
   50.6170   -3.6700   19.8840 C   0  0  0  0  0  0  0  0  0  0  0  0
   52.3480   -5.2780   20.5810 C   0  0  0  0  0  0  0  0  0  0  0  0
   51.5960   -4.6490   19.5620 C   0  0  0  0  0  0  0  0  0  0  0  0
   51.8780   -5.0840   17.9200 Cl  0  0  0  0  0  0  0  0  0  0  0  0
   52.0910   -2.5070   24.2750 S   0  0  0  0  0  0  0  0  0  0  0  0
   52.2620   -1.0080   23.1650 C   0  0  0  0  0  0  0  0  0  0  0  0
   51.5920   -2.1040   25.5610 O   0  0  0  0  0  0  0  0  0  0  0  0
   53.3620   -3.1560   24.4130 O   0  0  0  0  0  0  0  0  0  0  0  0
   51.2490   -0.0920   22.8270 C   0  0  0  0  0  0  0  0  0  0  0  0
   53.4340   -0.6000   22.5210 C   0  0  0  0  0  0  0  0  0  0  0  0
   51.8130    0.8950   21.9990 S   0  0  0  0  0  0  0  0  0  0  0  0
   49.8310   -0.1500   23.2590 C   0  0  0  0  0  0  0  0  0  0  0  0
   53.1650    0.5680   21.8120 C   0  0  0  0  0  0  0  0  0  0  0  0
   49.4040   -1.1430   23.9960 O   0  0  0  0  0  0  0  0  0  0  0  0
   49.0530    0.7200   22.9180 O   0  0  0  0  0  0  0  0  0  0  0  0
  1  2  1  0
  2  3  2  0
  2  4  1  0
  3  5  1  0
  4  6  2  0
  5  7  2  0
  6  7  1  0
  7  8  1  0
  1  9  1  0
  9 10  1  0
  9 11  2  0
  9 12  2  0
 10 13  2  0
 10 14  1  0
 13 15  1  0
 13 16  1  0
 14 17  2  0
 15 17  1  0
 16 18  1  0
 16 19  2  0
M  END
$$$$
1L2S_STC_A_1115
     RDKit          3D

 19 20  0  0  0  0  0  0  0  0999 V2000
   23.9580    4.3210   13.8760 N   0  0  0  0  0  0  0  0  0  0  0  0
   22.7830    4.6990   13.2060 C   0  0  0  0  0  0  0  0  0  0  0  0
   21.7520    5.3460   13.9220 C   0  0  0  0  0  0  0  0  0  0  0  0
   22.6370    4.4260   11.8220 C   0  0  0  0  0  0  0  0  0  0  0  0
   20.5620    5.7140   13.2600 C   0  0  0  0  0  0  0  0  0  0  0  0
   21.4460    4.7960   11.1610 C   0  0  0  0  0  0  0  0  0  0  0  0
   20.4110    5.4330   11.8830 C   0  0  0  0  0  0  0  0  0  0  0  0
   18.9380    5.8670   11.0820 Cl  0  0  0  0  0  0  0  0  0  0  0  0
   25.2760    5.4300   13.8970 S   0  0  0  0  0  0  0  0  0  0  0  0
   25.0170    6.7010   15.2220 C   0  0  0  0  0  0  0  0  0  0  0  0
   26.4830    4.6860   14.1520 O   0  0  0  0  0  0  0  0  0  0  0  0
   25.3670    6.0870   12.6250 O   0  0  0  0  0  0  0  0  0  0  0  0
   24.7470    6.4870   16.5870 C   0  0  0  0  0  0  0  0  0  0  0  0
   25.0600    8.0870   15.0100 C   0  0  0  0  0  0  0  0  0  0  0  0
   24.6290    7.7630   17.2160 S   0  0  0  0  0  0  0  0  0  0  0  0
   24.6010    5.1790   17.2960 C   0  0  0  0  0  0  0  0  0  0  0  0
   24.8220    8.7390   16.2240 C   0  0  0  0  0  0  0  0  0  0  0  0
   24.7180    4.0210   16.6520 O   0  0  0  0  0  0  0  0  0  0  0  0
   24.3710    5.1850   18.4900 O   0  0  0  0  0  0  0  0  0  0  0  0
  1  2  1  0
  2  3  2  0
  2  4  1  0
  3  5  1  0
  4  6  2  0
  5  7  2  0
  6  7  1  0
  7  8  1  0
  1  9  1  0
  9 10  1  0
  9 11  2  0
  9 12  2  0
 10 13  2  0
 10 14  1  0
 13 15  1  0
 13 16  1  0
 14 17  2  0
 15 17  1  0
 16 18  1  0
 16 19  2  0
M  END
$$$$
1L2S_STC_B_2115
     RDKit          3D

 19 20  0  0  0  0  0  0  0  0999 V2000
   79.3530    4.1940   30.7490 N   0  0  0  0  0  0  0  0  0  0  0  0
   80.5860    4.5600   31.3310 C   0  0  0  0  0  0  0  0  0  0  0  0
   81.6500    4.9890   30.5050 C   0  0  0  0  0  0  0  0  0  0  0  0
   80.7530    4.4920   32.7440 C   0  0  0  0  0  0  0  0  0  0  0  0
   82.8860    5.3510   31.0840 C   0  0  0  0  0  0  0  0  0  0  0  0
   81.9920    4.8590   33.3230 C   0  0  0  0  0  0  0  0  0  0  0  0
   83.0580    5.2860   32.4900 C   0  0  0  0  0  0  0  0  0  0  0  0
   84.5900    5.7290   33.1960 Cl  0  0  0  0  0  0  0  0  0  0  0  0
   78.1280    5.4030   30.5050 S   0  0  0  0  0  0  0  0  0  0  0  0
   78.3850    6.2750   28.8910 C   0  0  0  0  0  0  0  0  0  0  0  0
   76.8540    4.7400   30.4940 O   0  0  0  0  0  0  0  0  0  0  0  0
   78.1750    6.3450   31.5770 O   0  0  0  0  0  0  0  0  0  0  0  0
   78.5240    5.6870   27.6260 C   0  0  0  0  0  0  0  0  0  0  0  0
   78.4760    7.6600   28.7280 C   0  0  0  0  0  0  0  0  0  0  0  0
   78.6950    6.7220   26.6810 S   0  0  0  0  0  0  0  0  0  0  0  0
   78.4980    4.2410   27.3070 C   0  0  0  0  0  0  0  0  0  0  0  0
   78.6700    7.9340   27.3780 C   0  0  0  0  0  0  0  0  0  0  0  0
   78.3240    3.3350   28.2630 O   0  0  0  0  0  0  0  0  0  0  0  0
   78.6360    3.8840   26.1410 O   0  0  0  0  0  0  0  0  0  0  0  0
  1  2  1  0
  2  3  2  0
  2  4  1  0
  3  5  1  0
  4  6  2  0
  5  7  2  0
  6  7  1  0
  7  8  1  0
  1  9  1  0
  9 10  1  0
  9 11  2  0
  9 12  2  0
 10 13  2  0
 10 14  1  0
 13 15  1  0
 13 16  1  0
 14 17  2  0
 15 17  1  0
 16 18  1  0
 16 19  2  0
M  END
$$$$
