@<TRIPOS>MOLECULE
1L2S_STC_B_2115
 27 28 0 0 0
SMALL
GASTEIGER

@<TRIPOS>ATOM
      1 N           1.3412    1.1463   -0.0600 N.pl3   1  UNL1       -0.2162
      2 C           0.3158    0.8218    0.8931 C.ar    1  UNL1        0.0481
      3 C          -0.5641    1.8272    1.3243 C.ar    1  UNL1       -0.0379
      4 C           0.1795   -0.4769    1.4180 C.ar    1  UNL1       -0.0379
      5 C          -1.5758    1.5373    2.2446 C.ar    1  UNL1       -0.0416
      6 C          -0.8335   -0.7640    2.3378 C.ar    1  UNL1       -0.0416
      7 C          -1.7134    0.2411    2.7498 C.ar    1  UNL1        0.0411
      8 CL         -2.9836   -0.1219    3.9037 Cl      1  UNL1       -0.0835
      9 S           2.0955   -0.0312   -1.0879 S.O2    1  UNL1        0.0737
     10 C           0.8878   -1.1389   -1.7425 C.ar    1  UNL1        0.1295
     11 O           3.1208   -0.7890   -0.2918 O.2     1  UNL1       -0.1499
     12 O           2.7873    0.6630   -2.2270 O.2     1  UNL1       -0.1499
     13 C          -0.2754   -0.7564   -2.4240 C.ar    1  UNL1        0.1226
     14 C           0.9925   -2.5281   -1.5665 C.ar    1  UNL1       -0.0272
     15 S          -1.1446   -2.1534   -2.7809 S.2     1  UNL1       -0.0883
     16 C          -0.7216    0.5987   -2.7968 C.2     1  UNL1        0.3454
     17 C          -0.0709   -3.2445   -2.0944 C.ar    1  UNL1       -0.0216
     18 O           0.1073    1.7011   -2.6250 O.3     1  UNL1       -0.4767
     19 O          -1.8674    0.7606   -3.2955 O.2     1  UNL1       -0.2445
     20 H           1.5536    2.1507   -0.2533 H       1  UNL1        0.1737
     21 H          -0.4724    2.8344    0.9377 H       1  UNL1        0.0637
     22 H           0.8583   -1.2678    1.1329 H       1  UNL1        0.0637
     23 H          -2.2521    2.3204    2.5631 H       1  UNL1        0.0633
     24 H          -0.9304   -1.7673    2.7329 H       1  UNL1        0.0633
     25 H           1.8178   -3.0049   -1.0545 H       1  UNL1        0.0643
     26 H          -0.1884   -4.3191   -2.0618 H       1  UNL1        0.0694
     27 H          -0.2017    2.6306   -2.8828 H       1  UNL1        0.2954
@<TRIPOS>BOND
     1     1     2    1
     2     2     3   ar
     3     2     4   ar
     4     3     5   ar
     5     4     6   ar
     6     5     7   ar
     7     6     7   ar
     8     7     8    1
     9     1     9    1
    10     9    10    1
    11     9    11    2
    12     9    12    2
    13    10    13   ar
    14    10    14   ar
    15    13    15   ar
    16    13    16    1
    17    14    17   ar
    18    15    17   ar
    19    16    18    1
    20    16    19    2
    21     1    20    1
    22     3    21    1
    23     4    22    1
    24     5    23    1
    25     6    24    1
    26    14    25    1
    27    17    26    1
    28    18    27    1
