7M41_YQG_B_201
     RDKit          3D

 32 36  0  0  0  0  0  0  0  0999 V2000
  -29.0002  -35.8144   27.4275 N   0  0  0  0  0  0  0  0  0  0  0  0
  -32.5355  -36.5011   28.0478 N   0  0  0  0  0  0  0  0  0  0  0  0
  -27.6943  -36.3455   25.5034 C   0  0  0  0  0  0  0  0  0  0  0  0
  -28.9060  -36.3578   26.1977 C   0  0  0  0  0  0  0  0  0  0  0  0
  -30.0382  -36.9321   25.6309 C   0  0  0  0  0  0  0  0  0  0  0  0
  -30.1726  -35.8195   28.1142 C   0  0  0  0  0  0  0  0  0  0  0  0
  -31.2292  -36.9281   26.3484 C   0  0  0  0  0  0  0  0  0  0  0  0
  -34.7483  -37.4867   27.2355 C   0  0  0  0  0  0  0  0  0  0  0  0
  -29.3092  -38.0123   20.0392 C   0  0  0  0  0  0  0  0  0  0  0  0
  -27.7984  -39.6882   20.8055 C   0  0  0  0  0  0  0  0  0  0  0  0
  -30.2499  -36.3160   21.6153 C   0  0  0  0  0  0  0  0  0  0  0  0
  -32.5686  -41.9348   19.0140 C   0  0  0  0  0  0  0  0  0  0  0  0
  -30.0120  -37.5053   24.3774 C   0  0  0  0  0  0  0  0  0  0  0  0
  -28.6814  -38.0704   22.3652 C   0  0  0  0  0  0  0  0  0  0  0  0
  -29.3871  -37.5051   21.3232 C   0  0  0  0  0  0  0  0  0  0  0  0
  -28.5091  -39.1189   19.7563 C   0  0  0  0  0  0  0  0  0  0  0  0
  -27.8807  -39.1715   22.1019 C   0  0  0  0  0  0  0  0  0  0  0  0
  -31.1907  -40.3968   18.2506 C   0  0  0  0  0  0  0  0  0  0  0  0
  -33.0103  -40.6840   19.4180 C   0  0  0  0  0  0  0  0  0  0  0  0
  -28.8064  -37.4881   23.6972 C   0  0  0  0  0  0  0  0  0  0  0  0
  -27.6737  -36.9210   24.2481 C   0  0  0  0  0  0  0  0  0  0  0  0
  -33.2944  -37.1361   27.1278 C   0  0  0  0  0  0  0  0  0  0  0  0
  -31.2857  -36.3687   27.5902 N   0  0  0  0  0  0  0  0  0  0  0  0
  -32.4765  -37.3994   26.0726 N   0  0  0  0  0  0  0  0  0  0  0  0
  -28.4416  -39.6276   18.4257 N   0  0  0  0  0  0  0  0  0  0  0  0
  -32.1528  -39.7591   18.9400 N   0  0  0  0  0  0  0  0  0  0  0  0
  -31.4460  -41.7345   18.2958 N   0  0  0  0  0  0  0  0  0  0  0  0
  -30.2083  -35.2942   29.2699 O   0  0  0  0  0  0  0  0  0  0  0  0
  -29.4865  -40.7024   16.2908 O   0  0  0  0  0  0  0  0  0  0  0  0
  -30.1772  -38.4061   16.8346 O   0  0  0  0  0  0  0  0  0  0  0  0
  -29.8119  -39.7460   17.4056 S   0  0  1  0  0  6  0  0  0  0  0  0
  -26.1353  -36.8985   23.3814 Cl  0  0  0  0  0  0  0  0  0  0  0  0
  1  4  1  0
  3  4  2  0
  4  5  1  0
  1  6  1  0
  5  7  1  0
  5 13  2  0
  9 15  2  0
 11 15  1  6
 14 15  1  0
  9 16  1  0
 10 16  2  0
 10 17  1  0
 14 17  2  0
 12 19  2  0
 13 20  1  0
 14 20  1  0
 20 21  2  0
  3 21  1  0
  8 22  1  1
  2 22  2  0
  2 23  1  0
  7 23  1  0
  6 23  1  0
 22 24  1  0
  7 24  2  0
 16 25  1  0
 19 26  1  0
 18 26  1  0
 12 27  1  0
 18 27  2  0
  6 28  2  0
 18 31  1  0
 30 31  2  0
 29 31  2  0
 31 25  1  1
 21 32  1  0
M  END
$$$$
