7NPL_UKZ_A_401
     RDKit          3D

 27 29  0  0  0  0  0  0  0  0999 V2000
  -40.3094   11.1176   41.4072 C   0  0  0  0  0  0  0  0  0  0  0  0
  -39.5065   10.0067   41.4521 C   0  0  0  0  0  0  0  0  0  0  0  0
  -37.8154    3.6992   41.1297 C   0  0  0  0  0  0  0  0  0  0  0  0
  -35.6961    2.8384   41.9572 C   0  0  0  0  0  0  0  0  0  0  0  0
  -38.4249    2.8401   42.0169 C   0  0  0  0  0  0  0  0  0  0  0  0
  -39.9126    2.8061   42.0665 C   0  0  0  0  0  0  0  0  0  0  0  0
  -35.4451    5.4242   36.7071 C   0  0  0  0  0  0  0  0  0  0  0  0
  -35.9574    6.1004   37.9986 C   0  0  0  0  0  0  0  0  0  0  0  0
  -37.1922    5.3754   38.3752 C   0  0  0  0  0  0  0  0  0  0  0  0
  -37.8129    5.8065   39.7195 C   0  0  1  0  0  0  0  0  0  0  0  0
  -38.6400    6.9405   39.4356 N   0  0  0  0  0  0  0  0  0  0  0  0
  -38.5413    8.0473   40.3420 C   0  0  0  0  0  0  0  0  0  0  0  0
  -37.6522    8.0389   41.2571 O   0  0  0  0  0  0  0  0  0  0  0  0
  -39.3958    9.2182   40.3037 C   0  0  0  0  0  0  0  0  0  0  0  0
  -40.0975    9.5923   39.1817 C   0  0  0  0  0  0  0  0  0  0  0  0
  -40.9090   10.7222   39.1548 C   0  0  0  0  0  0  0  0  0  0  0  0
  -41.0215   11.5089   40.2906 C   0  0  0  0  0  0  0  0  0  0  0  0
  -40.2645   11.7744   42.6830 N   0  0  0  0  0  0  0  0  0  0  0  0
  -39.3932   11.0291   43.5366 C   0  0  0  0  0  0  0  0  0  0  0  0
  -39.0750   11.2812   44.7433 O   0  0  0  0  0  0  0  0  0  0  0  0
  -38.8844    9.8660   42.8006 C   0  0  0  0  0  0  0  0  0  0  0  0
  -38.5094    4.6430   40.2637 C   0  0  1  0  0  0  0  0  0  0  0  0
  -39.1935    3.9478   39.2124 O   0  0  0  0  0  0  0  0  0  0  0  0
  -36.4216    3.6729   41.1240 C   0  0  0  0  0  0  0  0  0  0  0  0
  -36.3238    1.9718   42.8561 C   0  0  0  0  0  0  0  0  0  0  0  0
  -37.7020    2.0079   42.8510 C   0  0  0  0  0  0  0  0  0  0  0  0
  -38.5298    0.9336   43.9762 Cl  0  0  0  0  0  0  0  0  0  0  0  0
  1  2  2  0
  3  5  2  0
  5  6  1  0
  7  8  1  0
  8  9  1  0
 10  9  1  6
 10 11  1  0
 11 12  1  0
 12 13  2  0
  2 14  1  0
 12 14  1  0
 14 15  2  0
 15 16  1  0
 16 17  2  0
  1 17  1  0
  1 18  1  0
 18 19  1  0
 19 20  2  0
 19 21  1  0
  2 21  1  0
 10 22  1  0
  3 22  1  0
 22 23  1  6
  3 24  1  0
  4 24  2  0
  4 25  1  0
  5 26  1  0
 25 26  2  0
 26 27  1  0
M  END
$$$$
