1TZ8_DES_B_128
     RDKit          3D

 40 41  0  0  0  0  0  0  0  0999 V2000
   14.8493   63.6332   37.1139 C   0  0  0  0  0  0  0  0  0  0  0  0
   16.2202   63.0537   36.8430 C   0  0  0  0  0  0  0  0  0  0  0  0
   16.3131   62.5666   35.4159 C   0  0  0  0  0  0  0  0  0  0  0  0
   15.0977   62.6619   34.5469 C   0  0  0  0  0  0  0  0  0  0  0  0
   13.8828   62.9776   35.1348 C   0  0  0  0  0  0  0  0  0  0  0  0
   12.7374   63.0406   34.3622 C   0  0  0  0  0  0  0  0  0  0  0  0
   12.8020   62.7944   33.0066 C   0  0  0  0  0  0  0  0  0  0  0  0
   11.6471   62.8596   32.2733 O   0  0  0  0  0  0  0  0  0  0  0  0
   14.0138   62.4628   32.4068 C   0  0  0  0  0  0  0  0  0  0  0  0
   15.1719   62.3919   33.1813 C   0  0  0  0  0  0  0  0  0  0  0  0
   17.4555   62.0717   34.9730 C   0  0  0  0  0  0  0  0  0  0  0  0
   18.6235   62.0360   35.9156 C   0  0  0  0  0  0  0  0  0  0  0  0
   19.2489   60.8471   36.2886 C   0  0  0  0  0  0  0  0  0  0  0  0
   20.3407   60.8899   37.1671 C   0  0  0  0  0  0  0  0  0  0  0  0
   20.7963   62.1118   37.6690 C   0  0  0  0  0  0  0  0  0  0  0  0
   21.8665   62.1847   38.5402 O   0  0  0  0  0  0  0  0  0  0  0  0
   20.1638   63.2855   37.2925 C   0  0  0  0  0  0  0  0  0  0  0  0
   19.0823   63.2451   36.4206 C   0  0  0  0  0  0  0  0  0  0  0  0
   17.5711   61.6085   33.5357 C   0  0  0  0  0  0  0  0  0  0  0  0
   17.6655   60.0932   33.5587 C   0  0  0  0  0  0  0  0  0  0  0  0
   14.7997   63.9732   38.1272 H   0  0  0  0  0  0  0  0  0  0  0  0
   14.1059   62.8806   36.9533 H   0  0  0  0  0  0  0  0  0  0  0  0
   14.6727   64.4556   36.4526 H   0  0  0  0  0  0  0  0  0  0  0  0
   16.3939   62.2334   37.5076 H   0  0  0  0  0  0  0  0  0  0  0  0
   16.9558   63.8150   36.9988 H   0  0  0  0  0  0  0  0  0  0  0  0
   13.8330   63.1655   36.1483 H   0  0  0  0  0  0  0  0  0  0  0  0
   11.8325   63.2723   34.8008 H   0  0  0  0  0  0  0  0  0  0  0  0
   10.8389   63.0842   32.6909 H   0  0  0  0  0  0  0  0  0  0  0  0
   14.0552   62.2703   31.3937 H   0  0  0  0  0  0  0  0  0  0  0  0
   16.0744   62.1419   32.7477 H   0  0  0  0  0  0  0  0  0  0  0  0
   18.9112   59.9438   35.9215 H   0  0  0  0  0  0  0  0  0  0  0  0
   20.8105   60.0141   37.4447 H   0  0  0  0  0  0  0  0  0  0  0  0
   22.3076   61.4023   38.8069 H   0  0  0  0  0  0  0  0  0  0  0  0
   20.4961   64.1908   37.6598 H   0  0  0  0  0  0  0  0  0  0  0  0
   18.6152   64.1233   36.1457 H   0  0  0  0  0  0  0  0  0  0  0  0
   18.4489   62.0237   33.0861 H   0  0  0  0  0  0  0  0  0  0  0  0
   16.7247   61.9278   32.9644 H   0  0  0  0  0  0  0  0  0  0  0  0
   18.5175   59.7976   34.1344 H   0  0  0  0  0  0  0  0  0  0  0  0
   17.7664   59.7269   32.5584 H   0  0  0  0  0  0  0  0  0  0  0  0
   16.7790   59.6873   33.9994 H   0  0  0  0  0  0  0  0  0  0  0  0
  1  2  1  0
  2  3  1  0
  3  4  1  0
  4  5  2  0
  5  6  1  0
  6  7  2  0
  7  8  1  0
  7  9  1  0
  4 10  1  0
  9 10  2  0
  3 11  2  3
 11 12  1  0
 12 13  2  0
 13 14  1  0
 14 15  2  0
 15 16  1  0
 15 17  1  0
 12 18  1  0
 17 18  2  0
 11 19  1  0
 19 20  1  0
  1 21  1  0
  1 22  1  0
  1 23  1  0
  2 24  1  0
  2 25  1  0
  5 26  1  0
  6 27  1  0
  8 28  1  0
  9 29  1  0
 10 30  1  0
 13 31  1  0
 14 32  1  0
 16 33  1  0
 17 34  1  0
 18 35  1  0
 19 36  1  0
 19 37  1  0
 20 38  1  0
 20 39  1  0
 20 40  1  0
M  END
