7JHQ_VAJ_A_301
     RDKit          3D

 18 19  0  0  0  0  0  0  0  0999 V2000
   32.8662  -39.4358    7.5845 C   0  0  0  0  0  0  0  0  0  0  0  0
   31.9774  -39.1652    6.5704 C   0  0  0  0  0  0  0  0  0  0  0  0
   31.5796  -40.1527    5.6975 C   0  0  0  0  0  0  0  0  0  0  0  0
   32.0687  -41.4509    5.8212 C   0  0  0  0  0  0  0  0  0  0  0  0
   31.5997  -42.4433    4.8585 C   0  0  0  0  0  0  0  0  0  0  0  0
   31.0491  -43.1863    2.6420 C   0  0  0  0  0  0  0  0  0  0  0  0
   30.6864  -44.4382    3.1311 C   0  0  0  0  0  0  0  0  0  0  0  0
   30.4147  -45.9911    5.0685 C   0  0  0  0  0  0  0  0  0  0  0  0
   33.2682  -38.3787    8.4897 C   0  0  0  0  0  0  0  0  0  0  0  0
   34.1004  -38.6289    9.4094 O   0  0  0  0  0  0  0  0  0  0  0  0
   30.7790  -44.6959    4.4819 C   0  0  0  0  0  0  0  0  0  0  0  0
   31.2318  -43.6972    5.3137 C   0  0  0  0  0  0  0  0  0  0  0  0
   32.9471  -41.7092    6.8270 C   0  0  0  0  0  0  0  0  0  0  0  0
   33.3564  -40.7151    7.7168 C   0  0  0  0  0  0  0  0  0  0  0  0
   31.5035  -42.1952    3.5050 C   0  0  0  0  0  0  0  0  0  0  0  0
   32.7537  -37.0991    8.3610 O   0  0  0  0  0  0  0  0  0  0  0  0
   30.0129  -46.9472    4.3267 O   0  0  0  0  0  0  0  0  0  0  0  0
   30.4898  -46.2291    6.4307 O   0  0  0  0  0  0  0  0  0  0  0  0
  1  2  2  0
  2  3  1  0
  3  4  2  0
  4  5  1  0
  6  7  2  0
  1  9  1  0
  9 10  2  0
  7 11  1  0
  8 11  1  0
  5 12  1  0
 11 12  2  0
  4 13  1  0
  1 14  1  0
 13 14  2  0
  5 15  2  0
  6 15  1  0
  9 16  1  0
  8 17  2  0
  8 18  1  0
M  END
$$$$
