7CIJ_G0C_B_601
     RDKit          3D

 21 21  0  0  0  0  0  0  0  0999 V2000
   12.4342  -18.0694   72.6222 C   0  0  0  0  0  0  0  0  0  0  0  0
   13.2484  -17.8228   73.7172 C   0  0  0  0  0  0  0  0  0  0  0  0
   14.6306  -17.6707   73.5568 C   0  0  0  0  0  0  0  0  0  0  0  0
   15.1901  -17.7638   72.3208 N   0  0  0  0  0  0  0  0  0  0  0  0
   13.0638  -18.1521   71.3977 C   0  0  0  0  0  0  0  0  0  0  0  0
   11.5775  -15.9018   77.3663 O   0  0  0  0  0  0  0  0  0  0  0  0
   10.6763  -17.0499   76.5304 P   0  0  2  0  0  0  0  0  0  0  0  0
    9.0582  -16.5529   76.3062 O   0  0  0  0  0  0  0  0  0  0  0  0
   10.7077  -18.3775   77.2380 O   0  0  0  0  0  0  0  0  0  0  0  0
   11.3276  -17.2559   74.9964 O   0  0  0  0  0  0  0  0  0  0  0  0
   12.6400  -17.7192   75.0807 C   0  0  0  0  0  0  0  0  0  0  0  0
   14.4269  -18.0027   71.2350 C   0  0  0  0  0  0  0  0  0  0  0  0
   15.0528  -18.1032   69.8764 C   0  0  0  0  0  0  0  0  0  0  0  0
   12.2887  -18.3987   70.2653 O   0  0  0  0  0  0  0  0  0  0  0  0
   10.9905  -18.2353   72.7383 C   0  0  0  0  0  0  0  0  0  0  0  0
   10.2259  -17.6537   71.8765 N   0  0  0  0  0  0  0  0  0  0  0  0
    8.8055  -17.9525   71.8944 C   0  0  0  0  0  0  0  0  0  0  0  0
    8.0872  -16.6567   72.0758 C   0  0  0  0  0  0  0  0  0  0  0  0
    6.7197  -16.7967   72.7001 C   0  0  0  0  0  0  0  0  0  0  0  0
    5.7388  -18.1246   72.0057 S   0  0  0  0  0  0  0  0  0  0  0  0
    4.3927  -17.3512   71.0395 C   0  0  0  0  0  0  0  0  0  0  0  0
  1  2  2  0
  2  3  1  0
  3  4  2  0
  1  5  1  0
  7  6  1  1
  7  8  1  0
  7  9  2  0
  7 10  1  0
  2 11  1  0
 10 11  1  0
  5 12  2  0
  4 12  1  0
 12 13  1  0
  5 14  1  0
  1 15  1  0
 15 16  2  0
 16 17  1  0
 17 18  1  0
 18 19  1  0
 19 20  1  0
 20 21  1  0
M  END
$$$$
