7KFO_IAC_A_201
     RDKit          3D

 22 23  0  0  0  0  0  0  0  0999 V2000
    2.4579   49.7598   43.4327 C   0  0  0  0  0  0  0  0  0  0  0  0
    1.9374   48.4760   43.5700 C   0  0  0  0  0  0  0  0  0  0  0  0
    2.7956   47.3592   43.5286 C   0  0  0  0  0  0  0  0  0  0  0  0
    4.1660   47.5651   43.3651 C   0  0  0  0  0  0  0  0  0  0  0  0
    4.6760   48.8660   43.2303 C   0  0  0  0  0  0  0  0  0  0  0  0
    3.8321   49.9599   43.2755 C   0  0  0  0  0  0  0  0  0  0  0  0
    0.5349   48.6571   43.7153 C   0  0  0  0  0  0  0  0  0  0  0  0
    0.3008   50.0110   43.6768 C   0  0  0  0  0  0  0  0  0  0  0  0
   -0.5461   47.5876   43.8530 C   0  0  0  0  0  0  0  0  0  0  0  0
   -1.5929   47.5929   42.7626 C   0  0  0  0  0  0  0  0  0  0  0  0
    1.4584   50.6550   43.4979 N   0  0  0  0  0  4  0  0  0  0  0  0
   -1.7330   48.6280   42.0723 O   0  0  0  0  0  0  0  0  0  0  0  0
   -2.2767   46.5691   42.5534 O   0  0  0  0  0  0  0  0  0  0  0  0
    2.4163   46.4036   43.6178 H   0  0  0  0  0  0  0  0  0  0  0  0
    4.8076   46.7571   43.3432 H   0  0  0  0  0  0  0  0  0  0  0  0
    5.6895   49.0070   43.0962 H   0  0  0  0  0  0  0  0  0  0  0  0
    4.2133   50.9155   43.1939 H   0  0  0  0  0  0  0  0  0  0  0  0
   -0.6237   50.4599   43.7711 H   0  0  0  0  0  0  0  0  0  0  0  0
   -1.0418   47.7355   44.7897 H   0  0  0  0  0  0  0  0  0  0  0  0
   -0.0448   46.6449   43.7816 H   0  0  0  0  0  0  0  0  0  0  0  0
    1.5621   51.6314   43.4254 H   0  0  0  0  0  0  0  0  0  0  0  0
   -1.2078   49.3837   42.2490 H   0  0  0  0  0  0  0  0  0  0  0  0
  1  2  4  0
  2  3  4  0
  3  4  4  0
  4  5  4  0
  1  6  4  0
  5  6  4  0
  2  7  4  0
  7  8  4  0
  7  9  1  0
  9 10  1  0
  1 11  4  0
  8 11  4  0
 10 12  1  0
 10 13  2  0
  3 14  1  0
  4 15  1  0
  5 16  1  0
  6 17  1  0
  8 18  1  0
  9 19  1  0
  9 20  1  0
 11 21  1  0
 12 22  1  0
M  CHG  1  11   1
M  END
