7E2S_BLA_A_301
     RDKit          3D

 43 46  0  0  0  0  0  0  0  0999 V2000
  -10.3248  -28.9557  -19.2006 C   0  0  0  0  0  0  0  0  0  0  0  0
  -10.2629  -28.8458  -21.6353 N   0  0  0  0  0  0  0  0  0  0  0  0
  -10.3010  -28.1997  -20.4204 C   0  0  0  0  0  0  0  0  0  0  0  0
  -10.3597  -26.8395  -20.6638 C   0  0  0  0  0  0  0  0  0  0  0  0
  -10.3531  -26.7121  -22.0660 C   0  0  0  0  0  0  0  0  0  0  0  0
  -10.2944  -27.9603  -22.6396 C   0  0  0  0  0  0  0  0  0  0  0  0
  -10.3564  -25.4304  -22.8066 C   0  0  0  0  0  0  0  0  0  0  0  0
  -10.4034  -25.7520  -19.6909 C   0  0  0  0  0  0  0  0  0  0  0  0
   -9.7699  -26.0100  -18.3690 C   0  0  0  0  0  0  0  0  0  0  0  0
   -9.8960  -24.9847  -17.3490 C   0  0  0  0  0  0  0  0  0  0  0  0
   -9.2968  -25.2085  -16.2295 O   0  0  0  0  0  0  0  0  0  0  0  0
  -10.5764  -23.8018  -17.4261 O   0  0  0  0  0  0  0  0  0  0  0  0
  -10.2331  -28.3639  -24.0372 C   0  0  0  0  0  0  0  0  0  0  0  0
   -9.6452  -30.7685  -23.7873 N   0  0  0  0  0  0  0  0  0  0  0  0
   -9.9938  -29.5829  -24.4637 C   0  0  0  0  0  0  0  0  0  0  0  0
  -10.0683  -29.9627  -25.8874 C   0  0  0  0  0  0  0  0  0  0  0  0
   -9.7911  -31.2408  -26.0234 C   0  0  0  0  0  0  0  0  0  0  0  0
   -9.5085  -31.8318  -24.7243 C   0  0  0  0  0  0  0  0  0  0  0  0
  -10.4083  -29.0434  -27.0112 C   0  0  0  0  0  0  0  0  0  0  0  0
   -9.2037  -33.0115  -24.4146 O   0  0  0  0  0  0  0  0  0  0  0  0
   -9.7723  -31.9493  -27.2952 C   0  0  0  0  0  0  0  0  0  0  0  0
   -9.3577  -33.1917  -27.4317 C   0  0  0  0  0  0  0  0  0  0  0  0
   -4.9919  -28.1943  -18.8395 N   0  0  0  0  0  0  0  0  0  0  0  0
   -3.6788  -27.6979  -19.1778 C   0  0  0  0  0  0  0  0  0  0  0  0
   -2.8597  -28.8707  -19.2924 C   0  0  0  0  0  0  0  0  0  0  0  0
   -3.5444  -30.0021  -19.0589 C   0  0  0  0  0  0  0  0  0  0  0  0
   -4.9548  -29.6073  -18.7566 C   0  0  0  0  0  0  0  0  0  0  0  0
   -1.3950  -28.7612  -19.6473 C   0  0  0  0  0  0  0  0  0  0  0  0
   -3.3182  -26.5054  -19.3396 O   0  0  0  0  0  0  0  0  0  0  0  0
   -2.8937  -31.2853  -19.1245 C   0  0  0  0  0  0  0  0  0  0  0  0
   -1.9301  -31.8477  -18.4865 C   0  0  0  0  0  0  0  0  0  0  0  0
   -5.8749  -30.4568  -18.5084 C   0  0  0  0  0  0  0  0  0  0  0  0
   -8.0317  -29.6068  -18.9778 N   0  0  0  0  0  0  0  0  0  0  0  0
   -7.2845  -30.4616  -18.2568 C   0  0  0  0  0  0  0  0  0  0  0  0
   -8.2290  -31.1209  -17.4271 C   0  0  0  0  0  0  0  0  0  0  0  0
   -9.4973  -30.7025  -17.6242 C   0  0  0  0  0  0  0  0  0  0  0  0
   -9.3799  -29.6878  -18.6577 C   0  0  0  0  0  0  0  0  0  0  0  0
   -7.9356  -32.1394  -16.3972 C   0  0  0  0  0  0  0  0  0  0  0  0
  -10.7254  -31.1397  -16.9546 C   0  0  0  0  0  0  0  0  0  0  0  0
  -10.8102  -30.6727  -15.5263 C   0  0  0  0  0  0  0  0  0  0  0  0
  -12.0001  -31.1031  -14.7901 C   0  0  0  0  0  0  0  0  0  0  0  0
  -12.9027  -31.8607  -15.1842 O   0  0  0  0  0  0  0  0  0  0  0  0
  -12.1450  -30.6030  -13.4795 O   0  0  0  0  0  0  0  0  0  0  0  0
  1  3  1  0
  2  3  1  0
  3  4  2  0
  4  5  1  0
  2  6  1  0
  5  6  2  0
  5  7  1  0
  4  8  1  0
  8  9  1  0
  9 10  1  0
 10 11  2  0
 10 12  1  0
  6 13  1  0
 13 15  2  0
 14 15  1  0
 15 16  1  0
 16 17  2  0
 14 18  1  0
 17 18  1  0
 16 19  1  0
 18 20  2  0
 17 21  1  0
 21 22  2  0
 23 24  1  0
 24 25  1  0
 25 26  2  0
 23 27  1  0
 26 27  1  0
 25 28  1  0
 24 29  2  0
 26 30  1  0
 30 31  2  0
 27 32  2  0
 32 34  1  0
 33 34  2  0
 34 35  1  0
 35 36  2  0
  1 37  2  0
 33 37  1  0
 36 37  1  0
 35 38  1  0
 36 39  1  0
 39 40  1  0
 40 41  1  0
 41 42  2  0
 41 43  1  0
M  END
$$$$
