
     RDKit          3D

 37 41  0  0  0  0  0  0  0  0999 V2000
   -1.3066  -20.8451   35.6674 C   0  0  0  0  0  0  0  0  0  0  0  0
   -0.9694  -19.6761   34.9649 C   0  0  0  0  0  0  0  0  0  0  0  0
   -1.8968  -18.6503   34.6971 C   0  0  0  0  0  0  0  0  0  0  0  0
   -7.3581  -16.9644   37.4939 N   0  0  0  0  0  0  0  0  0  0  0  0
   -3.8218  -20.5349   42.8537 N   0  0  0  0  0  0  0  0  0  0  0  0
    0.7492  -22.1260   35.0331 C   0  0  0  0  0  0  0  0  0  0  0  0
   -6.9882  -19.3431   36.5369 O   0  0  0  0  0  0  0  0  0  0  0  0
   -5.8596  -19.1608   36.0890 C   0  0  0  0  0  0  0  0  0  0  0  0
   -4.8666  -20.1000   36.2900 O   0  0  0  0  0  0  0  0  0  0  0  0
   -3.5620  -19.8946   35.8170 C   0  0  0  0  0  0  0  0  0  0  0  0
   -2.6418  -20.9194   36.0866 C   0  0  0  0  0  0  0  0  0  0  0  0
   -0.3853  -21.8537   35.9256 N   0  0  0  0  0  0  0  0  0  0  0  0
    1.9544  -21.2740   35.4047 C   0  0  0  0  0  0  0  0  0  0  0  0
   -0.4762  -22.7060   37.1194 C   0  0  0  0  0  0  0  0  0  0  0  0
    0.5260  -22.2708   38.1789 C   0  0  0  0  0  0  0  0  0  0  0  0
   -5.5080  -17.9288   35.3260 C   0  0  0  0  0  0  0  0  0  0  0  0
   -4.2509  -17.7180   34.8754 C   0  0  0  0  0  0  0  0  0  0  0  0
   -3.8185  -16.4766   34.1371 C   0  0  0  0  0  0  0  0  0  0  0  0
   -3.2210  -18.7447   35.1245 C   0  0  0  0  0  0  0  0  0  0  0  0
   -6.6755  -16.9861   35.0952 C   0  0  0  0  0  0  0  0  0  0  0  0
   -7.8047  -17.1291   36.1262 C   0  0  0  0  0  0  0  0  0  0  0  0
   -6.3547  -16.1247   37.8725 C   0  0  0  0  0  0  0  0  0  0  0  0
   -5.6448  -15.4462   37.1495 O   0  0  0  0  0  0  0  0  0  0  0  0
   -6.2510  -16.1564   39.2431 N   0  0  0  0  0  0  0  0  0  0  0  0
   -7.2198  -17.0380   39.8451 C   0  0  2  0  0  0  0  0  0  0  0  0
   -7.9731  -17.5003   38.5919 C   0  0  0  0  0  0  0  0  0  0  0  0
   -8.9606  -18.2229   38.5800 O   0  0  0  0  0  0  0  0  0  0  0  0
   -8.1321  -16.3577   40.8601 C   0  0  0  0  0  0  0  0  0  0  0  0
   -8.5676  -17.5026   41.7640 C   0  0  0  0  0  0  0  0  0  0  0  0
   -7.4227  -18.3968   41.7818 N   0  0  0  0  0  0  0  0  0  0  0  0
   -6.6045  -18.2225   40.5908 C   0  0  0  0  0  0  0  0  0  0  0  0
   -7.2898  -19.5492   42.5469 C   0  0  0  0  0  0  0  0  0  0  0  0
   -8.2692  -20.2131   42.8829 O   0  0  0  0  0  0  0  0  0  0  0  0
   -5.9295  -19.9454   42.9141 C   0  0  0  0  0  0  0  0  0  0  0  0
   -5.5402  -20.2226   44.2127 N   0  0  0  0  0  0  0  0  0  0  0  0
   -4.2775  -20.5712   44.1398 C   0  0  0  0  0  0  0  0  0  0  0  0
   -4.8597  -20.1362   42.0579 C   0  0  0  0  0  0  0  0  0  0  0  0
  1  2  4  0
  2  3  4  0
  7  8  2  0
  8  9  4  0
  9 10  4  0
  1 11  4  0
 10 11  4  0
  6 12  1  0
  1 12  1  0
  6 13  1  0
 12 14  1  0
 14 15  1  0
  8 16  4  0
 16 17  4  0
 17 18  1  0
  3 19  4  0
 17 19  4  0
 10 19  4  0
 16 20  1  0
 20 21  1  0
  4 21  1  0
  4 22  1  0
 22 23  2  0
 22 24  1  0
 25 24  1  0
  4 26  1  0
 25 26  1  0
 26 27  2  0
 25 28  1  1
 28 29  1  0
 29 30  1  0
 25 31  1  0
 30 31  1  0
 30 32  1  0
 32 33  2  0
 32 34  1  0
 34 35  4  0
 35 36  4  0
  5 36  4  0
 34 37  4  0
  5 37  4  0
M  END
