7P4J_5JK_A_904
     RDKit          3D

 29 32  0  0  0  0  0  0  0  0999 V2000
    7.5279   24.1619   -2.7000 C   0  0  0  0  0  0  0  0  0  0  0  0
    7.3298   25.5654   -2.2712 C   0  0  2  0  0  0  0  0  0  0  0  0
    7.1250   26.3882   -3.5247 C   0  0  0  0  0  0  0  0  0  0  0  0
    8.3188   26.3920   -4.4371 C   0  0  0  0  0  0  0  0  0  0  0  0
    9.6102   26.6850   -3.7437 C   0  0  2  0  0  0  0  0  0  0  0  0
   10.7505   26.5052   -4.7021 C   0  0  1  0  0  0  0  0  0  0  0  0
   10.8824   25.1064   -5.2379 C   0  0  0  0  0  0  0  0  0  0  0  0
   10.5989   27.4505   -5.8974 C   0  0  0  0  0  0  0  0  0  0  0  0
   11.8777   27.4586   -6.6929 C   0  0  0  0  0  0  0  0  0  0  0  0
   12.9477   28.1169   -5.8129 C   0  0  2  0  0  0  0  0  0  0  0  0
   14.1000   28.3722   -6.5662 O   0  0  0  0  0  0  0  0  0  0  0  0
   13.2614   27.0962   -4.7410 C   0  0  0  0  0  0  0  0  0  0  0  0
   12.0106   26.8157   -3.9720 C   0  0  0  0  0  0  0  0  0  0  0  0
   12.1026   26.8614   -2.6508 C   0  0  0  0  0  0  0  0  0  0  0  0
   10.9557   26.6076   -1.7352 C   0  0  1  0  0  0  0  0  0  0  0  0
   10.4531   27.8827   -1.3873 O   0  0  0  0  0  0  0  0  0  0  0  0
    9.8309   25.8930   -2.5007 C   0  0  1  0  0  0  0  0  0  0  0  0
    8.6235   26.0476   -1.6404 C   0  0  2  0  0  0  0  0  0  0  0  0
    8.6459   25.3421   -0.3348 C   0  0  0  0  0  0  0  0  0  0  0  0
    7.1768   25.4086    0.0714 C   0  0  0  0  0  0  0  0  0  0  0  0
    6.4178   25.8382   -1.1797 C   0  0  2  0  0  0  0  0  0  0  0  0
    5.0495   25.3244   -1.0994 C   0  0  2  0  0  0  0  0  0  0  0  0
    4.3627   25.1092   -2.4285 C   0  0  0  0  0  0  0  0  0  0  0  0
    4.1126   26.0658   -0.1962 C   0  0  0  0  0  0  0  0  0  0  0  0
    3.2250   27.0622   -0.8656 C   0  0  0  0  0  0  0  0  0  0  0  0
    2.8659   28.1548    0.1136 C   0  0  0  0  0  0  0  0  0  0  0  0
    2.0382   29.2203   -0.5982 C   0  0  2  0  0  0  0  0  0  0  0  0
    1.5659   30.3026    0.3374 C   0  0  0  0  0  0  0  0  0  0  0  0
    0.8320   28.5206   -1.1873 C   0  0  0  0  0  0  0  0  0  0  0  0
  2  1  1  6
  3  2  1  1
  4  3  1  6
  5  4  1  6
  5  6  1  0
  7  6  1  6
  6  8  1  0
  8  9  1  1
  9 10  1  6
 10 11  1  6
 10 12  1  0
 12 13  1  1
  6 13  1  1
 13 14  2  0
 14 15  1  0
 15 16  1  6
 17 15  1  1
  5 17  1  0
 17 18  1  0
  2 18  1  0
 18 19  1  1
 19 20  1  1
 21 20  1  1
  2 21  1  0
 21 22  1  0
 22 23  1  6
 24 22  1  1
 25 24  1  1
 26 25  1  1
 26 27  1  0
 27 28  1  1
 29 27  1  1
M  END
$$$$
