
     RDKit          3D

 23 25  0  0  0  0  0  0  0  0999 V2000
   -1.6101   78.2925   66.7432 C   0  0  2  0  0  0  0  0  0  0  0  0
   -2.6715   77.1749   66.8146 C   0  0  2  0  0  0  0  0  0  0  0  0
   -4.0470   77.7095   67.2624 C   0  0  0  0  0  0  0  0  0  0  0  0
   -3.2192   78.4475   69.4825 N   0  0  0  0  0  0  0  0  0  0  0  0
   -2.2309   79.6067   66.5331 N   0  0  0  0  0  0  0  0  0  0  0  0
   -3.1826   80.0595   67.5473 C   0  0  0  0  0  0  0  0  0  0  0  0
   -3.9928   79.1574   71.6669 C   0  0  0  0  0  0  0  0  0  0  0  0
   -3.0187   79.3106   70.5313 C   0  0  0  0  0  0  0  0  0  0  0  0
   -2.1163   80.1418   70.5450 O   0  0  0  0  0  0  0  0  0  0  0  0
   -3.8962   78.8779   68.2560 C   0  0  1  0  0  0  0  0  0  0  0  0
   -2.0711   80.1562   65.2810 C   0  0  0  0  0  0  0  0  0  0  0  0
   -2.3070   81.2719   64.7232 N   0  0  0  0  0  0  0  0  0  0  0  0
   -2.8109   82.4430   65.4210 C   0  0  0  0  0  0  0  0  0  0  0  0
   -3.2797   83.5719   64.5317 C   0  0  0  0  0  0  0  0  0  0  0  0
   -4.1745   84.5340   65.0225 C   0  0  0  0  0  0  0  0  0  0  0  0
   -4.6258   85.5687   64.2008 C   0  0  0  0  0  0  0  0  0  0  0  0
   -4.2025   85.6433   62.8754 C   0  0  0  0  0  0  0  0  0  0  0  0
   -3.3319   84.6809   62.3685 C   0  0  0  0  0  0  0  0  0  0  0  0
   -2.8782   83.6478   63.1900 C   0  0  0  0  0  0  0  0  0  0  0  0
   -1.3016   78.9617   64.2114 S   0  0  0  0  0  0  0  0  0  0  0  0
   -0.6037   78.0629   65.6180 C   0  0  0  0  0  0  0  0  0  0  0  0
   -2.2373   76.1974   67.7857 O   0  0  0  0  0  0  0  0  0  0  0  0
   -4.7863   76.6150   67.8360 O   0  0  0  0  0  0  0  0  0  0  0  0
  1  2  1  0
  2  3  1  0
  1  5  1  0
  5  6  1  0
  7  8  1  0
  4  8  1  0
  8  9  2  0
 10  4  1  1
  3 10  1  0
  6 10  1  0
  5 11  1  0
 11 12  2  0
 12 13  1  0
 13 14  1  0
 14 15  4  0
 15 16  4  0
 16 17  4  0
 17 18  4  0
 18 19  4  0
 14 19  4  0
 11 20  1  0
  1 21  1  6
 20 21  1  0
  2 22  1  1
  3 23  1  0
M  END
