1YV3_BIT_A_800
     RDKit          3D

 38 41  0  0  0  0  0  0  0  0999 V2000
   23.3147   37.9124   40.6830 O   0  0  0  0  0  0  0  0  0  0  0  0
   23.3300   37.8618   39.4392 C   0  0  0  0  0  0  0  0  0  0  0  0
   24.1258   36.9916   38.6481 C   0  0  0  0  0  0  0  0  0  0  0  0
   25.2442   36.3431   39.1961 C   0  0  0  0  0  0  0  0  0  0  0  0
   26.0622   35.5746   38.3895 C   0  0  0  0  0  0  0  0  0  0  0  0
   27.2798   34.8687   38.9272 C   0  0  0  0  0  0  0  0  0  0  0  0
   25.8126   35.4380   36.9827 C   0  0  0  0  0  0  0  0  0  0  0  0
   23.8914   36.8517   37.2463 C   0  0  0  0  0  0  0  0  0  0  0  0
   24.7152   36.0965   36.4089 C   0  0  0  0  0  0  0  0  0  0  0  0
   22.5859   38.8900   38.6557 C   0  0  2  0  0  0  0  0  0  0  0  0
   21.9811   38.2527   37.3948 C   0  0  0  0  0  0  0  0  0  0  0  0
   22.8140   37.4349   36.6402 N   0  0  0  0  0  0  0  0  0  0  0  0
   23.6200   39.9351   38.3231 O   0  0  0  0  0  0  0  0  0  0  0  0
   21.3254   39.4758   39.3330 C   0  0  0  0  0  0  0  0  0  0  0  0
   20.4607   39.8334   38.1265 C   0  0  0  0  0  0  0  0  0  0  0  0
   20.8954   38.9260   37.0431 N   0  0  0  0  0  0  0  0  0  0  0  0
   20.2383   38.9862   35.7846 C   0  0  0  0  0  0  0  0  0  0  0  0
   20.9814   38.5249   34.6748 C   0  0  0  0  0  0  0  0  0  0  0  0
   20.4161   38.4895   33.3851 C   0  0  0  0  0  0  0  0  0  0  0  0
   19.0891   38.8610   33.2451 C   0  0  0  0  0  0  0  0  0  0  0  0
   18.3227   39.2909   34.3491 C   0  0  0  0  0  0  0  0  0  0  0  0
   18.9116   39.3768   35.6204 C   0  0  0  0  0  0  0  0  0  0  0  0
   25.4555   36.4403   40.2016 H   0  0  0  0  0  0  0  0  0  0  0  0
   27.3581   35.0442   39.9798 H   0  0  0  0  0  0  0  0  0  0  0  0
   28.1544   35.2427   38.4372 H   0  0  0  0  0  0  0  0  0  0  0  0
   27.1917   33.8177   38.7465 H   0  0  0  0  0  0  0  0  0  0  0  0
   26.4358   34.8597   36.3978 H   0  0  0  0  0  0  0  0  0  0  0  0
   24.5221   36.0250   35.3976 H   0  0  0  0  0  0  0  0  0  0  0  0
   24.3843   39.5113   37.9024 H   0  0  0  0  0  0  0  0  0  0  0  0
   21.5623   40.3429   39.9134 H   0  0  0  0  0  0  0  0  0  0  0  0
   20.8531   38.8071   40.0220 H   0  0  0  0  0  0  0  0  0  0  0  0
   20.6167   40.8536   37.8444 H   0  0  0  0  0  0  0  0  0  0  0  0
   19.4180   39.7239   38.3403 H   0  0  0  0  0  0  0  0  0  0  0  0
   21.9542   38.2089   34.8114 H   0  0  0  0  0  0  0  0  0  0  0  0
   20.9743   38.1953   32.5684 H   0  0  0  0  0  0  0  0  0  0  0  0
   18.6508   38.8225   32.3116 H   0  0  0  0  0  0  0  0  0  0  0  0
   17.3298   39.5420   34.2220 H   0  0  0  0  0  0  0  0  0  0  0  0
   18.3674   39.7256   36.4248 H   0  0  0  0  0  0  0  0  0  0  0  0
  1  2  2  0
  2  3  1  0
  3  4  1  0
  4  5  2  0
  5  6  1  0
  5  7  1  0
  3  8  2  0
  7  9  2  0
  8  9  1  0
  2 10  1  0
 10 11  1  0
  8 12  1  0
 11 12  2  0
 10 13  1  6
 10 14  1  0
 14 15  1  0
 11 16  1  0
 15 16  1  0
 16 17  1  0
 17 18  2  0
 18 19  1  0
 19 20  2  0
 20 21  1  0
 17 22  1  0
 21 22  2  0
  4 23  1  0
  6 24  1  0
  6 25  1  0
  6 26  1  0
  7 27  1  0
  9 28  1  0
 13 29  1  0
 14 30  1  0
 14 31  1  0
 15 32  1  0
 15 33  1  0
 18 34  1  0
 19 35  1  0
 20 36  1  0
 21 37  1  0
 22 38  1  0
M  END
