@<TRIPOS>MOLECULE
1YV3_BIT_A_800
 38 41 0 0 0
SMALL
GASTEIGER

@<TRIPOS>ATOM
      1 O          22.9990   37.7950   40.6810 O.2     1  UNL1       -0.2882
      2 C          23.0680   37.9450   39.4470 C.2     1  UNL1        0.2108
      3 C          23.9040   37.2140   38.5620 C.ar    1  UNL1        0.0718
      4 C          25.0030   36.4870   39.0470 C.ar    1  UNL1       -0.0440
      5 C          25.8610   35.8590   38.1640 C.ar    1  UNL1       -0.0495
      6 C          27.0600   35.0770   38.6340 C.3     1  UNL1       -0.0397
      7 C          25.6730   35.9500   36.7440 C.ar    1  UNL1       -0.0547
      8 C          23.7310   37.3010   37.1470 C.ar    1  UNL1        0.1867
      9 C          24.5960   36.6910   36.2360 C.ar    1  UNL1       -0.0099
     10 C          22.3500   39.0850   38.8070 C.3     1  UNL1        0.2347
     11 C          21.8050   38.6580   37.4350 C.2     1  UNL1        0.3340
     12 N          22.6760   37.9730   36.5960 N.2     1  UNL1       -0.0419
     13 O          23.3890   40.1710   38.6920 O.3     1  UNL1       -0.3702
     14 C          21.0570   39.5530   39.5140 C.3     1  UNL1        0.0315
     15 C          20.2420   40.0990   38.3440 C.3     1  UNL1        0.0893
     16 N          20.7300   39.3780   37.1490 N.pl3   1  UNL1       -0.1875
     17 C          20.1270   39.6390   35.8890 C.ar    1  UNL1        0.1208
     18 C          20.1720   38.5840   34.9500 C.ar    1  UNL1       -0.0169
     19 C          19.5630   38.7090   33.6860 C.ar    1  UNL1       -0.0579
     20 C          18.8640   39.8730   33.4120 C.ar    1  UNL1       -0.0615
     21 C          18.7800   40.9220   34.3520 C.ar    1  UNL1       -0.0579
     22 C          19.4380   40.8110   35.5870 C.ar    1  UNL1       -0.0169
     23 H          25.1702   36.4216   40.0633 H       1  UNL1        0.0628
     24 H          27.0917   35.0812   39.7035 H       1  UNL1        0.0278
     25 H          27.9518   35.5258   38.2490 H       1  UNL1        0.0278
     26 H          26.9881   34.0687   38.2832 H       1  UNL1        0.0278
     27 H          26.3254   35.4738   36.1016 H       1  UNL1        0.0622
     28 H          24.4471   36.7828   35.2189 H       1  UNL1        0.0661
     29 H          24.1740   39.8211   38.2424 H       1  UNL1        0.2115
     30 H          21.2618   40.3158   40.2358 H       1  UNL1        0.0340
     31 H          20.5609   38.7818   40.0654 H       1  UNL1        0.0340
     32 H          20.4018   41.1515   38.2364 H       1  UNL1        0.0731
     33 H          19.1920   39.9556   38.4917 H       1  UNL1        0.0731
     34 H          20.6590   37.7076   35.1943 H       1  UNL1        0.0658
     35 H          19.6355   37.9554   32.9847 H       1  UNL1        0.0619
     36 H          18.3937   39.9754   32.4991 H       1  UNL1        0.0618
     37 H          18.2351   41.7703   34.1317 H       1  UNL1        0.0619
     38 H          19.4115   41.5895   36.2639 H       1  UNL1        0.0658
@<TRIPOS>BOND
     1     1     2    2
     2     2     3    1
     3     3     4   ar
     4     4     5   ar
     5     5     6    1
     6     5     7   ar
     7     3     8   ar
     8     7     9   ar
     9     8     9   ar
    10     2    10    1
    11    10    11    1
    12     8    12    1
    13    11    12    2
    14    10    13    1
    15    10    14    1
    16    14    15    1
    17    11    16    1
    18    15    16    1
    19    16    17    1
    20    17    18   ar
    21    18    19   ar
    22    19    20   ar
    23    20    21   ar
    24    17    22   ar
    25    21    22   ar
    26     4    23    1
    27     6    24    1
    28     6    25    1
    29     6    26    1
    30     7    27    1
    31     9    28    1
    32    13    29    1
    33    14    30    1
    34    14    31    1
    35    15    32    1
    36    15    33    1
    37    18    34    1
    38    19    35    1
    39    20    36    1
    40    21    37    1
    41    22    38    1
