1YV3_BIT_A_800
     RDKit          3D

 38 41  0  0  0  0  0  0  0  0999 V2000
    1.8258    0.3986   -3.0730 O   0  0  0  0  0  0  0  0  0  0  0  0
    1.3548    0.0130   -1.9685 C   0  0  0  0  0  0  0  0  0  0  0  0
    1.8496    0.5746   -0.6941 C   0  0  0  0  0  0  0  0  0  0  0  0
    3.0021    1.3735   -0.6308 C   0  0  0  0  0  0  0  0  0  0  0  0
    3.4402    1.8840    0.6017 C   0  0  0  0  0  0  0  0  0  0  0  0
    4.6967    2.7000    0.6762 C   0  0  0  0  0  0  0  0  0  0  0  0
    2.7313    1.5709    1.7724 C   0  0  0  0  0  0  0  0  0  0  0  0
    1.1373    0.2791    0.4838 C   0  0  0  0  0  0  0  0  0  0  0  0
    1.5774    0.7844    1.7105 C   0  0  0  0  0  0  0  0  0  0  0  0
    0.3568   -1.1215   -1.9178 C   0  0  2  0  0  0  0  0  0  0  0  0
   -0.4570   -1.0871   -0.6663 C   0  0  0  0  0  0  0  0  0  0  0  0
   -0.0929   -0.4566    0.4128 N   0  0  0  0  0  0  0  0  0  0  0  0
    1.0244   -2.3557   -2.0192 O   0  0  0  0  0  0  0  0  0  0  0  0
   -0.7398   -1.0498   -2.9933 C   0  0  0  0  0  0  0  0  0  0  0  0
   -2.0181   -1.6003   -2.3272 C   0  0  0  0  0  0  0  0  0  0  0  0
   -1.7917   -1.5137   -0.8882 N   0  0  0  0  0  0  0  0  0  0  0  0
   -2.7337   -1.9217    0.1262 C   0  0  0  0  0  0  0  0  0  0  0  0
   -2.2852   -2.4128    1.3678 C   0  0  0  0  0  0  0  0  0  0  0  0
   -3.2012   -2.8149    2.3445 C   0  0  0  0  0  0  0  0  0  0  0  0
   -4.5724   -2.7383    2.0933 C   0  0  0  0  0  0  0  0  0  0  0  0
   -5.0303   -2.2639    0.8626 C   0  0  0  0  0  0  0  0  0  0  0  0
   -4.1187   -1.8610   -0.1181 C   0  0  0  0  0  0  0  0  0  0  0  0
    3.5608    1.5927   -1.5329 H   0  0  0  0  0  0  0  0  0  0  0  0
    4.8386    3.2865   -0.2565 H   0  0  0  0  0  0  0  0  0  0  0  0
    4.6516    3.4137    1.5262 H   0  0  0  0  0  0  0  0  0  0  0  0
    5.5670    2.0253    0.8158 H   0  0  0  0  0  0  0  0  0  0  0  0
    3.0669    1.9436    2.7323 H   0  0  0  0  0  0  0  0  0  0  0  0
    1.0241    0.5704    2.6162 H   0  0  0  0  0  0  0  0  0  0  0  0
    1.6433   -2.4301   -1.2449 H   0  0  0  0  0  0  0  0  0  0  0  0
   -0.9182    0.0074   -3.2932 H   0  0  0  0  0  0  0  0  0  0  0  0
   -0.4716   -1.6367   -3.8989 H   0  0  0  0  0  0  0  0  0  0  0  0
   -2.8957   -0.9902   -2.6283 H   0  0  0  0  0  0  0  0  0  0  0  0
   -2.1754   -2.6623   -2.6150 H   0  0  0  0  0  0  0  0  0  0  0  0
   -1.2283   -2.5075    1.5774 H   0  0  0  0  0  0  0  0  0  0  0  0
   -2.8468   -3.1922    3.2951 H   0  0  0  0  0  0  0  0  0  0  0  0
   -5.2799   -3.0507    2.8505 H   0  0  0  0  0  0  0  0  0  0  0  0
   -6.0936   -2.2075    0.6678 H   0  0  0  0  0  0  0  0  0  0  0  0
   -4.5007   -1.4918   -1.0595 H   0  0  0  0  0  0  0  0  0  0  0  0
  1  2  2  0
  2  3  1  0
  3  4  1  0
  4  5  2  0
  5  6  1  0
  5  7  1  0
  3  8  2  0
  7  9  2  0
  8  9  1  0
  2 10  1  0
 10 11  1  0
  8 12  1  0
 11 12  2  0
 10 13  1  6
 10 14  1  0
 14 15  1  0
 11 16  1  0
 15 16  1  0
 16 17  1  0
 17 18  2  0
 18 19  1  0
 19 20  2  0
 20 21  1  0
 17 22  1  0
 21 22  2  0
  4 23  1  0
  6 24  1  0
  6 25  1  0
  6 26  1  0
  7 27  1  0
  9 28  1  0
 13 29  1  0
 14 30  1  0
 14 31  1  0
 15 32  1  0
 15 33  1  0
 18 34  1  0
 19 35  1  0
 20 36  1  0
 21 37  1  0
 22 38  1  0
M  END
