@<TRIPOS>MOLECULE
1YV3_BIT_A_800
 38 41 0 0 0
SMALL
GASTEIGER

@<TRIPOS>ATOM
      1 O           1.8258    0.3986   -3.0730 O.2     1  UNL1       -0.2882
      2 C           1.3548    0.0130   -1.9685 C.2     1  UNL1        0.2108
      3 C           1.8496    0.5746   -0.6941 C.ar    1  UNL1        0.0718
      4 C           3.0021    1.3735   -0.6308 C.ar    1  UNL1       -0.0440
      5 C           3.4402    1.8840    0.6017 C.ar    1  UNL1       -0.0495
      6 C           4.6967    2.7000    0.6762 C.3     1  UNL1       -0.0397
      7 C           2.7313    1.5709    1.7724 C.ar    1  UNL1       -0.0547
      8 C           1.1373    0.2791    0.4838 C.ar    1  UNL1        0.1867
      9 C           1.5774    0.7844    1.7105 C.ar    1  UNL1       -0.0099
     10 C           0.3568   -1.1215   -1.9178 C.3     1  UNL1        0.2347
     11 C          -0.4570   -1.0871   -0.6663 C.2     1  UNL1        0.3340
     12 N          -0.0929   -0.4566    0.4128 N.2     1  UNL1       -0.0419
     13 O           1.0244   -2.3557   -2.0192 O.3     1  UNL1       -0.3702
     14 C          -0.7398   -1.0498   -2.9933 C.3     1  UNL1        0.0315
     15 C          -2.0181   -1.6003   -2.3272 C.3     1  UNL1        0.0893
     16 N          -1.7917   -1.5137   -0.8882 N.pl3   1  UNL1       -0.1875
     17 C          -2.7337   -1.9217    0.1262 C.ar    1  UNL1        0.1208
     18 C          -2.2852   -2.4128    1.3678 C.ar    1  UNL1       -0.0169
     19 C          -3.2012   -2.8149    2.3445 C.ar    1  UNL1       -0.0579
     20 C          -4.5724   -2.7383    2.0933 C.ar    1  UNL1       -0.0615
     21 C          -5.0303   -2.2639    0.8626 C.ar    1  UNL1       -0.0579
     22 C          -4.1187   -1.8610   -0.1181 C.ar    1  UNL1       -0.0169
     23 H           3.5608    1.5927   -1.5329 H       1  UNL1        0.0628
     24 H           4.8386    3.2865   -0.2565 H       1  UNL1        0.0278
     25 H           4.6516    3.4137    1.5262 H       1  UNL1        0.0278
     26 H           5.5670    2.0253    0.8158 H       1  UNL1        0.0278
     27 H           3.0669    1.9436    2.7323 H       1  UNL1        0.0622
     28 H           1.0241    0.5704    2.6162 H       1  UNL1        0.0661
     29 H           1.6433   -2.4301   -1.2449 H       1  UNL1        0.2115
     30 H          -0.9182    0.0074   -3.2932 H       1  UNL1        0.0340
     31 H          -0.4716   -1.6367   -3.8989 H       1  UNL1        0.0340
     32 H          -2.8957   -0.9902   -2.6283 H       1  UNL1        0.0731
     33 H          -2.1754   -2.6623   -2.6150 H       1  UNL1        0.0731
     34 H          -1.2283   -2.5075    1.5774 H       1  UNL1        0.0658
     35 H          -2.8468   -3.1922    3.2951 H       1  UNL1        0.0619
     36 H          -5.2799   -3.0507    2.8505 H       1  UNL1        0.0618
     37 H          -6.0936   -2.2075    0.6678 H       1  UNL1        0.0619
     38 H          -4.5007   -1.4918   -1.0595 H       1  UNL1        0.0658
@<TRIPOS>BOND
     1     1     2    2
     2     2     3    1
     3     3     4   ar
     4     4     5   ar
     5     5     6    1
     6     5     7   ar
     7     3     8   ar
     8     7     9   ar
     9     8     9   ar
    10     2    10    1
    11    10    11    1
    12     8    12    1
    13    11    12    2
    14    10    13    1
    15    10    14    1
    16    14    15    1
    17    11    16    1
    18    15    16    1
    19    16    17    1
    20    17    18   ar
    21    18    19   ar
    22    19    20   ar
    23    20    21   ar
    24    17    22   ar
    25    21    22   ar
    26     4    23    1
    27     6    24    1
    28     6    25    1
    29     6    26    1
    30     7    27    1
    31     9    28    1
    32    13    29    1
    33    14    30    1
    34    14    31    1
    35    15    32    1
    36    15    33    1
    37    18    34    1
    38    19    35    1
    39    20    36    1
    40    21    37    1
    41    22    38    1
