7S45_ACO_A_202
     RDKit          3D

 89 91  0  0  0  0  0  0  0  0999 V2000
  -17.3045  -31.2856   32.7680 N   0  0  0  0  0  0  0  0  0  0  0  0
  -18.1507  -31.6034   33.7596 C   0  0  0  0  0  0  0  0  0  0  0  0
  -17.9609  -32.5829   34.6674 N   0  0  0  0  0  0  0  0  0  0  0  0
  -16.8364  -33.2944   34.5597 C   0  0  0  0  0  0  0  0  0  0  0  0
  -15.8465  -33.0063   33.5233 C   0  0  0  0  0  0  0  0  0  0  0  0
  -16.1599  -31.9287   32.6056 C   0  0  0  0  0  0  0  0  0  0  0  0
  -15.3048  -31.5838   31.6319 N   0  0  0  0  0  0  0  0  0  0  0  0
  -14.8174  -33.8653   33.6410 N   0  0  0  0  0  0  0  0  0  0  0  0
  -15.1393  -34.6711   34.6860 C   0  0  0  0  0  0  0  0  0  0  0  0
  -16.3176  -34.3102   35.2144 N   0  0  0  0  0  4  0  0  0  0  0  0
  -16.9935  -34.9390   36.3599 C   0  0  2  0  0  0  0  0  0  0  0  0
  -18.0728  -35.8567   35.8725 C   0  0  1  0  0  0  0  0  0  0  0  0
  -17.5613  -37.1937   35.7163 O   0  0  0  0  0  0  0  0  0  0  0  0
  -19.1618  -35.7269   36.9463 C   0  0  1  0  0  0  0  0  0  0  0  0
  -18.8387  -36.6344   37.9916 O   0  0  0  0  0  0  0  0  0  0  0  0
  -19.9782  -37.6678   38.5530 P   0  0  1  0  0  5  0  0  0  0  0  0
  -19.2318  -38.8863   38.9614 O   0  0  0  0  0  0  0  0  0  0  0  0
  -20.5411  -36.8289   39.6300 O   0  0  0  0  0  0  0  0  0  0  0  0
  -20.8950  -37.9924   37.4009 O   0  0  0  0  0  0  0  0  0  0  0  0
  -18.9828  -34.3070   37.4458 C   0  0  1  0  0  0  0  0  0  0  0  0
  -17.6627  -33.8861   37.0329 O   0  0  0  0  0  0  0  0  0  0  0  0
  -20.0033  -33.3687   36.8539 C   0  0  0  0  0  0  0  0  0  0  0  0
  -21.1390  -34.1420   36.4496 O   0  0  0  0  0  0  0  0  0  0  0  0
  -22.4090  -34.2498   37.3779 P   0  0  1  0  0  5  0  0  0  0  0  0
  -22.7858  -32.8410   37.7967 O   0  0  0  0  0  0  0  0  0  0  0  0
  -23.4330  -35.1562   36.6800 O   0  0  0  0  0  0  0  0  0  0  0  0
  -21.8481  -35.0920   38.5311 O   0  0  0  0  0  0  0  0  0  0  0  0
  -21.0834  -36.4676   38.2742 P   0  0  1  0  0  5  0  0  0  0  0  0
  -21.9680  -37.6399   38.6213 O   0  0  0  0  0  0  0  0  0  0  0  0
  -20.4984  -36.1495   36.9914 O   0  0  0  0  0  0  0  0  0  0  0  0
  -19.8108  -36.4906   39.2952 O   0  0  0  0  0  0  0  0  0  0  0  0
  -19.6290  -34.1125   38.9358 C   0  0  2  0  0  0  0  0  0  0  0  0
  -19.4418  -35.2881   39.8607 C   0  0  0  0  0  0  0  0  0  0  0  0
  -18.2975  -33.3893   39.1014 C   0  0  0  0  0  0  0  0  0  0  0  0
  -20.7542  -33.1511   39.2823 C   0  0  0  0  0  0  0  0  0  0  0  0
  -19.8348  -34.5206   37.4358 C   0  0  2  0  0  0  0  0  0  0  0  0
  -21.1423  -35.0340   37.1606 O   0  0  0  0  0  0  0  0  0  0  0  0
  -18.8475  -35.5600   36.9629 C   0  0  0  0  0  0  0  0  0  0  0  0
  -18.5773  -35.6862   35.7663 O   0  0  0  0  0  0  0  0  0  0  0  0
  -18.3452  -36.3149   37.9358 N   0  0  0  0  0  0  0  0  0  0  0  0
  -19.0675  -37.4393   38.5249 C   0  0  0  0  0  0  0  0  0  0  0  0
  -20.3549  -36.9705   39.1959 C   0  0  0  0  0  0  0  0  0  0  0  0
  -21.4404  -36.6729   38.1786 C   0  0  0  0  0  0  0  0  0  0  0  0
  -22.5771  -36.3582   38.5763 O   0  0  0  0  0  0  0  0  0  0  0  0
  -21.0776  -36.7448   36.8993 N   0  0  0  0  0  0  0  0  0  0  0  0
  -20.8594  -35.5591   36.0769 C   0  0  0  0  0  0  0  0  0  0  0  0
  -20.0364  -34.5175   36.8312 C   0  0  0  0  0  0  0  0  0  0  0  0
  -18.8325  -35.2867   37.8770 S   0  0  0  0  0  0  0  0  0  0  0  0
  -17.5454  -35.4084   36.7691 C   0  0  0  0  0  0  0  0  0  0  0  0
  -17.7772  -35.6706   35.5941 O   0  0  0  0  0  0  0  0  0  0  0  0
  -16.1492  -35.0608   37.2110 C   0  0  0  0  0  0  0  0  0  0  0  0
  -19.0199  -31.0520   33.8341 H   0  0  0  0  0  0  0  0  0  0  0  0
  -15.5306  -30.8499   31.0157 H   0  0  0  0  0  0  0  0  0  0  0  0
  -14.4513  -32.0645   31.5332 H   0  0  0  0  0  0  0  0  0  0  0  0
  -14.5577  -35.4527   35.0260 H   0  0  0  0  0  0  0  0  0  0  0  0
  -16.2903  -35.4740   36.9634 H   0  0  0  0  0  0  0  0  0  0  0  0
  -18.4592  -35.6124   34.9051 H   0  0  0  0  0  0  0  0  0  0  0  0
  -17.1870  -37.4971   36.5582 H   0  0  0  0  0  0  0  0  0  0  0  0
  -20.1549  -35.9281   36.6025 H   0  0  0  0  0  0  0  0  0  0  0  0
  -19.8678  -36.6852   40.3134 H   0  0  0  0  0  0  0  0  0  0  0  0
  -20.4231  -38.5445   36.7578 H   0  0  0  0  0  0  0  0  0  0  0  0
  -19.1072  -34.2826   38.5083 H   0  0  0  0  0  0  0  0  0  0  0  0
  -20.2987  -32.6461   37.5858 H   0  0  0  0  0  0  0  0  0  0  0  0
  -19.5884  -32.8530   36.0132 H   0  0  0  0  0  0  0  0  0  0  0  0
  -23.8299  -34.6808   35.9335 H   0  0  0  0  0  0  0  0  0  0  0  0
  -21.1954  -36.1154   36.3177 H   0  0  0  0  0  0  0  0  0  0  0  0
  -20.0346  -35.1287   40.7370 H   0  0  0  0  0  0  0  0  0  0  0  0
  -18.3977  -35.3509   40.0865 H   0  0  0  0  0  0  0  0  0  0  0  0
  -18.1658  -33.1148   40.1273 H   0  0  0  0  0  0  0  0  0  0  0  0
  -17.5003  -34.0362   38.8002 H   0  0  0  0  0  0  0  0  0  0  0  0
  -18.2917  -32.5090   38.4932 H   0  0  0  0  0  0  0  0  0  0  0  0
  -20.6575  -32.8417   40.3020 H   0  0  0  0  0  0  0  0  0  0  0  0
  -20.7010  -32.2946   38.6431 H   0  0  0  0  0  0  0  0  0  0  0  0
  -21.6960  -33.6402   39.1456 H   0  0  0  0  0  0  0  0  0  0  0  0
  -19.6850  -33.6013   36.9090 H   0  0  0  0  0  0  0  0  0  0  0  0
  -21.2705  -35.8667   37.6413 H   0  0  0  0  0  0  0  0  0  0  0  0
  -17.4446  -36.1062   38.2745 H   0  0  0  0  0  0  0  0  0  0  0  0
  -19.3098  -38.1416   37.7549 H   0  0  0  0  0  0  0  0  0  0  0  0
  -18.4437  -37.8951   39.2652 H   0  0  0  0  0  0  0  0  0  0  0  0
  -20.7004  -37.7371   39.8576 H   0  0  0  0  0  0  0  0  0  0  0  0
  -20.1431  -36.0689   39.7318 H   0  0  0  0  0  0  0  0  0  0  0  0
  -20.9518  -37.6323   36.4924 H   0  0  0  0  0  0  0  0  0  0  0  0
  -20.3366  -35.8413   35.1870 H   0  0  0  0  0  0  0  0  0  0  0  0
  -21.8098  -35.1327   35.8325 H   0  0  0  0  0  0  0  0  0  0  0  0
  -19.5347  -33.8904   36.1241 H   0  0  0  0  0  0  0  0  0  0  0  0
  -20.6984  -33.9415   37.4435 H   0  0  0  0  0  0  0  0  0  0  0  0
  -16.1464  -34.8649   38.2629 H   0  0  0  0  0  0  0  0  0  0  0  0
  -15.4937  -35.8795   36.9990 H   0  0  0  0  0  0  0  0  0  0  0  0
  -15.8149  -34.1909   36.6854 H   0  0  0  0  0  0  0  0  0  0  0  0
  1  2  4  0
  2  3  4  0
  3  4  4  0
  4  5  4  0
  1  6  4  0
  5  6  4  0
  6  7  1  0
  5  8  4  0
  8  9  4  0
  4 10  4  0
  9 10  4  0
 11 10  1  0
 11 12  1  0
 12 13  1  0
 12 14  1  0
 14 15  1  0
 16 15  1  1
 16 17  2  0
 16 18  1  0
 16 19  1  0
 14 20  1  0
 11 21  1  0
 20 21  1  0
 20 22  1  0
 22 23  1  0
 24 23  1  1
 24 25  2  0
 24 26  1  0
 24 27  1  0
 28 27  1  6
 28 29  2  0
 28 30  1  0
 28 31  1  0
 31 33  1  0
 32 33  1  6
 32 34  1  0
 32 35  1  0
 32 36  1  0
 36 37  1  0
 36 38  1  0
 38 39  2  0
 38 40  1  0
 40 41  1  0
 41 42  1  0
 42 43  1  0
 43 44  2  0
 43 45  1  0
 45 46  1  0
 46 47  1  0
 47 48  1  0
 48 49  1  0
 49 50  2  0
 49 51  1  0
  2 52  1  0
  7 53  1  0
  7 54  1  0
  9 55  1  0
 11 56  1  6
 12 57  1  1
 13 58  1  0
 14 59  1  1
 18 60  1  0
 19 61  1  0
 20 62  1  6
 22 63  1  0
 22 64  1  0
 26 65  1  0
 30 66  1  0
 33 67  1  0
 33 68  1  0
 34 69  1  0
 34 70  1  0
 34 71  1  0
 35 72  1  0
 35 73  1  0
 35 74  1  0
 36 75  1  1
 37 76  1  0
 40 77  1  0
 41 78  1  0
 41 79  1  0
 42 80  1  0
 42 81  1  0
 45 82  1  0
 46 83  1  0
 46 84  1  0
 47 85  1  0
 47 86  1  0
 51 87  1  0
 51 88  1  0
 51 89  1  0
M  CHG  1  10   1
M  END
