1OF1_SCT_B_500
     RDKit          3D

 18 20  0  0  0  0  0  0  0  0999 V2000
   32.6964   29.9810    6.6874 O   0  0  0  0  0  0  0  0  0  0  0  0
   28.7204   29.2834    9.1681 O   0  0  0  0  0  0  0  0  0  0  0  0
   30.6082   33.9188   10.3826 O   0  0  0  0  0  0  0  0  0  0  0  0
   33.7146   36.2122    8.2194 O   0  0  0  0  0  0  0  0  0  0  0  0
   31.6685   32.8708    8.7090 N   0  0  0  0  0  0  0  0  0  0  0  0
   32.1511   35.0572    9.3109 N   0  0  0  0  0  0  0  0  0  0  0  0
   31.0605   29.2242    8.3241 C   0  0  2  0  0  0  0  0  0  0  0  0
   29.6089   29.7148    8.1039 C   0  0  2  0  0  0  0  0  0  0  0  0
   29.7118   31.2502    8.0262 C   0  0  0  0  0  0  0  0  0  0  0  0
   30.8795   31.6367    8.9713 C   0  0  1  0  0  0  0  0  0  0  0  0
   31.7366   30.3244    9.1940 C   0  0  1  0  0  0  0  0  0  0  0  0
   31.8521   28.8894    7.0309 C   0  0  0  0  0  0  0  0  0  0  0  0
   31.4550   33.9443    9.4854 C   0  0  0  0  0  0  0  0  0  0  0  0
   31.1045   30.9766   10.3866 C   0  0  0  0  0  0  0  0  0  0  0  0
   33.0828   35.1792    8.3657 C   0  0  0  0  0  0  0  0  0  0  0  0
   33.3489   34.0192    7.4693 C   0  0  0  0  0  0  0  0  0  0  0  0
   32.5895   32.8979    7.7191 C   0  0  0  0  0  0  0  0  0  0  0  0
   34.3919   34.1051    6.3709 C   0  0  0  0  0  0  0  0  0  0  0  0
  8  2  1  1
  7  8  1  0
  8  9  1  0
 10  5  1  1
  9 10  1  0
  7 11  1  0
 10 11  1  0
  1 12  1  0
  7 12  1  6
  3 13  2  0
  5 13  1  0
  6 13  1  0
 10 14  1  0
 11 14  1  1
  4 15  2  0
  6 15  1  0
 15 16  1  0
  5 17  1  0
 16 17  2  0
 16 18  1  0
M  END
