1UML_FR4_A_1001
     RDKit          3D

 60 63  0  0  0  0  0  0  0  0999 V2000
   51.6269   55.1377   21.6011 C   0  0  0  0  0  0  0  0  0  0  0  0
   50.6608   55.5143   20.7477 N   0  0  0  0  0  0  0  0  0  0  0  0
   50.5836   56.8574   20.8506 C   0  0  0  0  0  0  0  0  0  0  0  0
   51.4732   57.3607   21.7311 N   0  0  0  0  0  0  0  0  0  0  0  0
   52.1282   56.2771   22.1980 C   0  0  0  0  0  0  0  0  0  0  0  0
   53.2116   56.3531   23.1941 C   0  0  0  0  0  0  0  0  0  0  0  0
   52.9320   56.2392   24.4185 O   0  0  0  0  0  0  0  0  0  0  0  0
   54.5725   56.5581   22.8035 N   0  0  0  0  0  0  0  0  0  0  0  0
   49.8488   54.6276   19.9036 C   0  0  1  0  0  0  0  0  0  0  0  0
   48.3554   54.8440   20.1884 C   0  0  1  0  0  0  0  0  0  0  0  0
   48.1948   55.4512   21.4406 O   0  0  0  0  0  0  0  0  0  0  0  0
   50.1541   54.8506   18.4071 C   0  0  2  0  0  0  0  0  0  0  0  0
   51.4434   54.1576   17.9380 C   0  0  2  0  0  0  0  0  0  0  0  0
   51.2434   52.7176   17.7574 N   0  0  0  0  0  0  0  0  0  0  0  0
   52.2016   51.7631   17.8452 C   0  0  0  0  0  0  0  0  0  0  0  0
   51.6542   50.5010   17.6468 C   0  0  0  0  0  0  0  0  0  0  0  0
   50.3100   50.7181   17.4296 C   0  0  0  0  0  0  0  0  0  0  0  0
   50.0896   52.0686   17.5002 C   0  0  0  0  0  0  0  0  0  0  0  0
   49.2826   49.8167   17.1668 C   0  0  0  0  0  0  0  0  0  0  0  0
   47.9867   50.3313   16.9807 C   0  0  0  0  0  0  0  0  0  0  0  0
   47.7423   51.7272   17.0687 C   0  0  0  0  0  0  0  0  0  0  0  0
   48.8158   52.6099   17.3115 C   0  0  0  0  0  0  0  0  0  0  0  0
   46.4283   52.2694   16.8671 N   0  0  0  0  0  0  0  0  0  0  0  0
   45.2544   51.8024   17.5536 C   0  0  0  0  0  0  0  0  0  0  0  0
   45.1520   50.5998   17.9156 O   0  0  0  0  0  0  0  0  0  0  0  0
   44.1804   52.7778   17.9356 C   0  0  1  0  0  0  0  0  0  0  0  0
   44.7555   54.1788   18.1896 C   0  0  1  0  0  0  0  0  0  0  0  0
   45.6610   55.7873   16.4616 C   0  0  0  0  0  0  0  0  0  0  0  0
   45.7763   54.5666   17.1477 C   0  0  0  0  0  0  0  0  0  0  0  0
   46.8125   53.6808   16.8026 C   0  0  0  0  0  0  0  0  0  0  0  0
   47.7227   54.0180   15.7952 C   0  0  0  0  0  0  0  0  0  0  0  0
   47.5992   55.2339   15.1179 C   0  0  0  0  0  0  0  0  0  0  0  0
   46.5700   56.1183   15.4512 C   0  0  0  0  0  0  0  0  0  0  0  0
   51.9322   54.1151   21.7687 H   0  0  0  0  0  0  0  0  0  0  0  0
   49.8867   57.4696   20.2932 H   0  0  0  0  0  0  0  0  0  0  0  0
   55.2791   56.8595   23.5120 H   0  0  0  0  0  0  0  0  0  0  0  0
   54.8908   56.4114   21.8199 H   0  0  0  0  0  0  0  0  0  0  0  0
   50.0808   53.5667   20.1511 H   0  0  0  0  0  0  0  0  0  0  0  0
   47.9050   55.4876   19.3989 H   0  0  0  0  0  0  0  0  0  0  0  0
   47.8319   53.8610   20.1868 H   0  0  0  0  0  0  0  0  0  0  0  0
   47.3585   55.0781   21.8229 H   0  0  0  0  0  0  0  0  0  0  0  0
   50.2418   55.9388   18.1985 H   0  0  0  0  0  0  0  0  0  0  0  0
   49.3028   54.4721   17.8041 H   0  0  0  0  0  0  0  0  0  0  0  0
   52.2609   54.3410   18.6684 H   0  0  0  0  0  0  0  0  0  0  0  0
   51.7657   54.6067   16.9737 H   0  0  0  0  0  0  0  0  0  0  0  0
   53.2469   51.9646   18.0403 H   0  0  0  0  0  0  0  0  0  0  0  0
   52.1744   49.5518   17.6580 H   0  0  0  0  0  0  0  0  0  0  0  0
   49.4750   48.7536   17.0979 H   0  0  0  0  0  0  0  0  0  0  0  0
   47.1854   49.6456   16.7419 H   0  0  0  0  0  0  0  0  0  0  0  0
   48.6503   53.6784   17.3565 H   0  0  0  0  0  0  0  0  0  0  0  0
   46.3572   53.1788   16.3580 H   0  0  0  0  0  0  0  0  0  0  0  0
   43.4089   52.8239   17.1367 H   0  0  0  0  0  0  0  0  0  0  0  0
   43.6778   52.4215   18.8603 H   0  0  0  0  0  0  0  0  0  0  0  0
   43.9237   54.9153   18.1777 H   0  0  0  0  0  0  0  0  0  0  0  0
   45.2043   54.2165   19.2064 H   0  0  0  0  0  0  0  0  0  0  0  0
   44.8611   56.4743   16.7025 H   0  0  0  0  0  0  0  0  0  0  0  0
   46.9094   52.7266   17.3064 H   0  0  0  0  0  0  0  0  0  0  0  0
   48.5216   53.3345   15.5387 H   0  0  0  0  0  0  0  0  0  0  0  0
   48.3010   55.4895   14.3345 H   0  0  0  0  0  0  0  0  0  0  0  0
   46.4740   57.0590   14.9238 H   0  0  0  0  0  0  0  0  0  0  0  0
  1  2  1  0
  2  3  1  0
  3  4  2  0
  1  5  2  0
  4  5  1  0
  5  6  1  0
  6  7  2  0
  6  8  1  0
  2  9  1  0
  9 10  1  0
 10 11  1  0
  9 12  1  0
 12 13  1  0
 13 14  1  0
 14 15  1  0
 15 16  2  0
 16 17  1  0
 14 18  1  0
 17 18  2  0
 17 19  1  0
 19 20  2  0
 20 21  1  0
 18 22  1  0
 21 22  2  0
 21 23  1  0
 23 24  1  0
 24 25  2  0
 24 26  1  0
 26 27  1  0
 27 29  1  0
 28 29  2  0
 29 30  1  0
 30 31  2  0
 31 32  1  0
 28 33  1  0
 32 33  2  0
  1 34  1  0
  3 35  1  0
  8 36  1  0
  8 37  1  0
  9 38  1  1
 10 39  1  6
 10 40  1  0
 11 41  1  0
 12 42  1  1
 12 43  1  0
 13 44  1  1
 13 45  1  0
 15 46  1  0
 16 47  1  0
 19 48  1  0
 20 49  1  0
 22 50  1  0
 23 51  1  0
 26 52  1  6
 26 53  1  0
 27 54  1  1
 27 55  1  0
 28 56  1  0
 30 57  1  0
 31 58  1  0
 32 59  1  0
 33 60  1  0
M  END
