7ZL5_IWE_AAA_303
     RDKit          3D

 23 25  0  0  0  0  0  0  0  0999 V2000
    6.9705   33.5675   50.8968 N   0  0  0  0  0  0  0  0  0  0  0  0
    3.3914   33.0258   47.3110 C   0  0  0  0  0  0  0  0  0  0  0  0
    3.5768   34.3815   47.4878 C   0  0  0  0  0  0  0  0  0  0  0  0
    4.4165   34.8649   48.4830 C   0  0  0  0  0  0  0  0  0  0  0  0
    5.0852   33.9405   49.3171 C   0  0  0  0  0  0  0  0  0  0  0  0
    6.0606   34.3667   50.3456 C   0  0  0  0  0  0  0  0  0  0  0  0
    4.8532   32.5762   49.1322 C   0  0  0  0  0  0  0  0  0  0  0  0
    3.7225   37.2811   48.2084 C   0  0  0  0  0  0  0  0  0  0  0  0
    3.9756   29.7676   49.2841 O   0  0  0  0  0  0  0  0  0  0  0  0
    4.3236   38.6425   48.3065 C   0  0  0  0  0  0  0  0  0  0  0  0
    5.7050   40.6243   48.8623 C   0  0  0  0  0  0  0  0  0  0  0  0
    4.9664   40.7540   47.7392 C   0  0  0  0  0  0  0  0  0  0  0  0
    7.3430   35.6337   51.5490 N   0  0  0  0  0  0  0  0  0  0  0  0
    4.1755   39.6266   47.4388 C   0  0  0  0  0  0  0  0  0  0  0  0
    7.7272   34.3794   51.6233 N   0  0  0  0  0  0  0  0  0  0  0  0
    2.1803   32.5606   46.1644 Cl  0  0  0  0  0  0  0  0  0  0  0  0
    6.2997   35.6524   50.7293 N   0  0  0  0  0  0  0  0  0  0  0  0
    4.0245   32.0920   48.1342 C   0  0  0  0  0  0  0  0  0  0  0  0
    3.8853   30.3320   47.9514 S   0  0  1  0  0  0  0  0  0  0  0  0
    5.1326   29.8792   47.1067 N   0  0  0  0  0  0  0  0  0  0  0  0
    2.6599   30.1267   47.2352 O   0  0  0  0  0  0  0  0  0  0  0  0
    4.6505   36.2389   48.6012 N   0  0  0  0  0  0  0  0  0  0  0  0
    5.4466   39.1274   49.5580 S   0  0  0  0  0  0  0  0  0  0  0  0
  2  3  2  0
  3  4  1  0
  4  5  2  0
  5  6  1  0
  1  6  1  0
  5  7  1  0
  8 10  1  0
 11 12  2  0
 12 14  1  0
 10 14  2  0
  1 15  1  0
 13 15  2  0
  2 16  1  0
  6 17  2  0
 13 17  1  0
  2 18  1  0
  7 18  2  0
  9 19  2  0
 18 19  1  0
 19 20  1  6
 19 21  2  0
  4 22  1  0
  8 22  1  0
 10 23  1  0
 11 23  1  0
M  END
