7W06_ITN_A_301
     RDKit          3D

  9  8  0  0  0  0  0  0  0  0999 V2000
  -20.6330   16.0564   29.9686 C   0  0  0  0  0  0  0  0  0  0  0  0
  -19.4536   16.6038   29.1720 C   0  0  0  0  0  0  0  0  0  0  0  0
  -19.1639   18.0537   29.5710 C   0  0  0  0  0  0  0  0  0  0  0  0
  -20.2648   19.0892   29.5086 C   0  0  0  0  0  0  0  0  0  0  0  0
  -21.3729   18.7882   28.9734 O   0  0  0  0  0  0  0  0  0  0  0  0
  -20.0619   20.2530   29.9775 O   0  0  0  0  0  0  0  0  0  0  0  0
  -17.9400   18.3944   29.9360 C   0  0  0  0  0  0  0  0  0  0  0  0
  -20.8767   16.4773   31.1252 O   0  0  0  0  0  0  0  0  0  0  0  0
  -21.3439   15.1726   29.4354 O   0  0  0  0  0  0  0  0  0  0  0  0
  1  2  1  0
  2  3  1  0
  3  4  1  0
  4  5  1  0
  4  6  2  0
  3  7  2  0
  1  8  2  0
  1  9  1  0
M  END
