@<TRIPOS>MOLECULE
1JJE_BYS_A_250
 43 45 0 0 0
SMALL
GASTEIGER

@<TRIPOS>ATOM
      1 C          -0.7779    1.4016   -0.5789 C.3     1  UNL1        0.0734
      2 C          -1.4688    1.0685    0.7242 C.2     1  UNL1        0.3089
      3 O          -2.6490    1.4682    0.9172 O.2     1  UNL1       -0.2507
      4 O          -0.8557    0.2863    1.6939 O.3     1  UNL1       -0.4804
      5 C           0.7087    1.8490   -0.4360 C.3     1  UNL1       -0.0140
      6 C           1.7192    0.8159    0.0136 C.ar    1  UNL1       -0.0466
      7 C           2.5384    0.1664   -0.9277 C.ar    1  UNL1       -0.0586
      8 C           3.5119   -0.7470   -0.5119 C.ar    1  UNL1       -0.0615
      9 C           3.7058   -0.9923    0.8489 C.ar    1  UNL1       -0.0617
     10 C           2.9416   -0.3075    1.7959 C.ar    1  UNL1       -0.0615
     11 C           1.9681    0.6069    1.3826 C.ar    1  UNL1       -0.0586
     12 C          -1.1432    0.4079   -1.7313 C.3     1  UNL1        0.0734
     13 C          -0.7853    1.0026   -3.0715 C.2     1  UNL1        0.3089
     14 O           0.3495    0.8053   -3.5839 O.2     1  UNL1       -0.2507
     15 O          -1.7042    1.8156   -3.7284 O.3     1  UNL1       -0.4804
     16 C          -0.6222   -1.0515   -1.6327 C.3     1  UNL1       -0.0138
     17 C          -1.0755   -1.8040   -0.4076 C.ar    1  UNL1       -0.0429
     18 C          -2.4526   -2.0215   -0.1693 C.ar    1  UNL1       -0.0129
     19 C          -2.8151   -2.7313    0.9714 C.ar    1  UNL1        0.1665
     20 O          -4.0826   -3.0501    1.4189 O.3     1  UNL1       -0.4526
     21 C          -3.9482   -3.7897    2.6406 C.3     1  UNL1        0.2332
     22 O          -2.5348   -3.8809    2.8683 O.3     1  UNL1       -0.4526
     23 C          -1.8933   -3.2272    1.8342 C.ar    1  UNL1        0.1662
     24 C          -0.5278   -3.0620    1.6286 C.ar    1  UNL1       -0.0159
     25 C          -0.1174   -2.3489    0.4883 C.ar    1  UNL1       -0.0549
     26 H          -1.2751    2.3508   -0.8900 H       1  UNL1        0.0425
     27 H          -1.3378    0.0458    2.5516 H       1  UNL1        0.2951
     28 H           1.0439    2.2861   -1.4014 H       1  UNL1        0.0321
     29 H           0.7428    2.6993    0.2810 H       1  UNL1        0.0321
     30 H           2.4227    0.3629   -1.9852 H       1  UNL1        0.0620
     31 H           4.1218   -1.2582   -1.2454 H       1  UNL1        0.0618
     32 H           4.4613   -1.6976    1.1699 H       1  UNL1        0.0618
     33 H           3.1137   -0.4737    2.8515 H       1  UNL1        0.0618
     34 H           1.4265    1.1678    2.1329 H       1  UNL1        0.0620
     35 H          -2.2536    0.3363   -1.7365 H       1  UNL1        0.0425
     36 H          -1.4789    2.2388   -4.6207 H       1  UNL1        0.2951
     37 H           0.4761   -1.0832   -1.7224 H       1  UNL1        0.0321
     38 H          -1.0000   -1.6149   -2.5144 H       1  UNL1        0.0321
     39 H          -3.2121   -1.6499   -0.8445 H       1  UNL1        0.0658
     40 H          -4.3838   -4.8042    2.5242 H       1  UNL1        0.1166
     41 H          -4.4359   -3.2431    3.4748 H       1  UNL1        0.1166
     42 H           0.1946   -3.4703    2.3229 H       1  UNL1        0.0655
     43 H           0.9407   -2.2156    0.3076 H       1  UNL1        0.0621
@<TRIPOS>BOND
     1     1     2    1
     2     2     3    2
     3     2     4    1
     4     1     5    1
     5     5     6    1
     6     6     7   ar
     7     7     8   ar
     8     8     9   ar
     9     9    10   ar
    10     6    11   ar
    11    10    11   ar
    12     1    12    1
    13    12    13    1
    14    13    14    2
    15    13    15    1
    16    12    16    1
    17    16    17    1
    18    17    18   ar
    19    18    19   ar
    20    19    20    1
    21    20    21    1
    22    21    22    1
    23    19    23   ar
    24    22    23    1
    25    23    24   ar
    26    17    25   ar
    27    24    25   ar
    28     1    26    1
    29     4    27    1
    30     5    28    1
    31     5    29    1
    32     7    30    1
    33     8    31    1
    34     9    32    1
    35    10    33    1
    36    11    34    1
    37    12    35    1
    38    15    36    1
    39    16    37    1
    40    16    38    1
    41    18    39    1
    42    21    40    1
    43    21    41    1
    44    24    42    1
    45    25    43    1
