7UP3_NZ0_A_305
     RDKit          3D

 23 25  0  0  0  0  0  0  0  0999 V2000
  -12.5697   15.9309  -30.5280 C   0  0  0  0  0  0  0  0  0  0  0  0
  -13.8702   16.1483  -30.0612 C   0  0  0  0  0  0  0  0  0  0  0  0
  -14.9380   16.3389  -31.0332 C   0  0  0  0  0  0  0  0  0  0  0  0
  -15.2329   15.3373  -31.9282 C   0  0  0  0  0  0  0  0  0  0  0  0
  -14.0626   16.1678  -28.7001 C   0  0  0  0  0  0  0  0  0  0  0  0
  -15.6348   17.5455  -31.0254 C   0  0  0  0  0  0  0  0  0  0  0  0
  -10.7781   14.2561  -26.8349 O   0  0  0  0  0  0  0  0  0  0  0  0
  -17.9987   14.5324  -34.6614 O   0  0  0  0  0  0  0  0  0  0  0  0
  -13.1564   12.5874  -32.5927 N   0  0  0  0  0  0  0  0  0  0  0  0
  -10.6736   15.5754  -27.2939 C   0  0  0  0  0  0  0  0  0  0  0  0
  -13.8497   12.0708  -31.6016 N   0  0  0  0  0  0  0  0  0  0  0  0
  -14.7107   12.9772  -31.2009 N   0  0  0  0  0  0  0  0  0  0  0  0
  -16.2508   15.5146  -32.8585 C   0  0  0  0  0  0  0  0  0  0  0  0
  -16.6731   14.2841  -34.0194 S   0  0  1  0  0  0  0  0  0  0  0  0
  -16.7839   12.9839  -33.2696 O   0  0  0  0  0  0  0  0  0  0  0  0
  -15.3936   14.1164  -35.1448 N   0  0  0  0  0  0  0  0  0  0  0  0
  -14.5285   14.0598  -31.9690 C   0  0  0  0  0  0  0  0  0  0  0  0
  -13.5379   13.8222  -32.8620 N   0  0  0  0  0  0  0  0  0  0  0  0
  -16.9047   16.6931  -32.8238 N   0  0  0  0  0  0  0  0  0  0  0  0
  -16.6424   17.6795  -31.9710 C   0  0  0  0  0  0  0  0  0  0  0  0
  -13.0391   15.9842  -27.7954 C   0  0  0  0  0  0  0  0  0  0  0  0
  -11.7705   15.7724  -28.2865 C   0  0  0  0  0  0  0  0  0  0  0  0
  -11.5354   15.7456  -29.6446 C   0  0  0  0  0  0  0  0  0  0  0  0
  1  2  2  0
  2  3  1  0
  3  4  1  0
  2  5  1  0
  3  6  2  0
  7 10  1  0
  9 11  1  0
 11 12  2  0
  4 13  2  0
  8 14  2  0
 13 14  1  0
 14 15  2  0
 14 16  1  6
  4 17  1  0
 12 17  1  0
 17 18  2  0
  9 18  1  0
 13 19  1  0
 19 20  2  0
  6 20  1  0
  5 21  2  0
 21 22  1  0
 10 22  1  0
  1 23  1  0
 22 23  2  0
M  END
$$$$
