2BM2_PM2_B_3211
     RDKit          3D

 59 62  0  0  0  0  0  0  0  0999 V2000
   38.3097   85.8775   89.8327 C   0  0  0  0  0  0  0  0  0  0  0  0
   39.2129   86.5319   88.9713 C   0  0  0  0  0  0  0  0  0  0  0  0
   38.5741   85.8923   91.2168 C   0  0  0  0  0  0  0  0  0  0  0  0
   40.3476   87.1872   89.4774 C   0  0  0  0  0  0  0  0  0  0  0  0
   39.6959   86.5531   91.7239 C   0  0  0  0  0  0  0  0  0  0  0  0
   40.5761   87.2047   90.8596 C   0  0  0  0  0  0  0  0  0  0  0  0
   41.2780   87.9199   88.5492 C   0  0  1  0  0  0  0  0  0  0  0  0
   42.4867   88.3106   89.2647 N   0  0  0  0  0  0  0  0  0  0  0  0
   36.2872   84.3827   90.4202 C   0  0  1  0  0  0  0  0  0  0  0  0
   35.1803   85.2119   91.0893 C   0  0  2  0  0  0  0  0  0  0  0  0
   33.0627   85.5370   89.7558 C   0  0  0  0  0  0  0  0  0  0  0  0
   32.1684   86.4144   89.6086 O   0  0  0  0  0  0  0  0  0  0  0  0
   37.0811   85.1321   89.3152 C   0  0  1  0  0  0  0  0  0  0  0  0
   34.4091   85.9383   90.0756 N   0  0  0  0  0  0  0  0  0  0  0  0
   35.1493   86.8212   89.1736 C   0  0  1  0  0  0  0  0  0  0  0  0
   36.1907   86.0081   88.4012 C   0  0  1  0  0  0  0  0  0  0  0  0
   32.7136   84.1120   89.5794 C   0  0  0  0  0  0  0  0  0  0  0  0
   33.3535   83.1259   90.3415 C   0  0  0  0  0  0  0  0  0  0  0  0
   31.7152   83.7207   88.6737 C   0  0  0  0  0  0  0  0  0  0  0  0
   32.9624   81.7833   90.2326 C   0  0  0  0  0  0  0  0  0  0  0  0
   31.3644   82.4110   88.5642 N   0  0  0  0  0  0  0  0  0  0  0  0
   33.5170   80.7507   91.1809 C   0  0  2  0  0  0  0  0  0  0  0  0
   31.9523   81.4460   89.3198 C   0  0  0  0  0  0  0  0  0  0  0  0
   32.6679   80.6492   92.4588 C   0  0  1  0  0  0  0  0  0  0  0  0
   32.3382   79.2160   92.8010 C   0  0  0  0  0  0  0  0  0  0  0  0
   32.0558   78.2893   91.7811 C   0  0  0  0  0  0  0  0  0  0  0  0
   32.2140   78.8198   94.1434 C   0  0  0  0  0  0  0  0  0  0  0  0
   31.6545   76.9886   92.1013 C   0  0  0  0  0  0  0  0  0  0  0  0
   31.8188   77.5157   94.4592 C   0  0  0  0  0  0  0  0  0  0  0  0
   31.5363   76.6020   93.4391 C   0  0  0  0  0  0  0  0  0  0  0  0
   39.0545   86.5385   87.9086 H   0  0  0  0  0  0  0  0  0  0  0  0
   37.9109   85.3915   91.9118 H   0  0  0  0  0  0  0  0  0  0  0  0
   39.8814   86.5621   92.7907 H   0  0  0  0  0  0  0  0  0  0  0  0
   41.4364   87.7215   91.2681 H   0  0  0  0  0  0  0  0  0  0  0  0
   41.5511   87.2615   87.6952 H   0  0  0  0  0  0  0  0  0  0  0  0
   40.7789   88.8202   88.1266 H   0  0  0  0  0  0  0  0  0  0  0  0
   42.8601   89.1767   88.8113 H   0  0  0  0  0  0  0  0  0  0  0  0
   42.2169   88.5786   90.2401 H   0  0  0  0  0  0  0  0  0  0  0  0
   36.9815   83.9958   91.1975 H   0  0  0  0  0  0  0  0  0  0  0  0
   35.7996   83.4962   89.9546 H   0  0  0  0  0  0  0  0  0  0  0  0
   35.6018   85.9254   91.8222 H   0  0  0  0  0  0  0  0  0  0  0  0
   34.5308   84.5205   91.6693 H   0  0  0  0  0  0  0  0  0  0  0  0
   37.4593   84.3217   88.6496 H   0  0  0  0  0  0  0  0  0  0  0  0
   34.4629   87.3219   88.4571 H   0  0  0  0  0  0  0  0  0  0  0  0
   35.6393   87.6269   89.7556 H   0  0  0  0  0  0  0  0  0  0  0  0
   36.8194   86.6917   87.7886 H   0  0  0  0  0  0  0  0  0  0  0  0
   35.6461   85.3427   87.6937 H   0  0  0  0  0  0  0  0  0  0  0  0
   34.1094   83.4082   91.0659 H   0  0  0  0  0  0  0  0  0  0  0  0
   31.2116   84.4551   88.0577 H   0  0  0  0  0  0  0  0  0  0  0  0
   34.5686   80.9982   91.4484 H   0  0  0  0  0  0  0  0  0  0  0  0
   33.5370   79.7576   90.6801 H   0  0  0  0  0  0  0  0  0  0  0  0
   31.6179   80.4204   89.2247 H   0  0  0  0  0  0  0  0  0  0  0  0
   33.2065   81.1347   93.3031 H   0  0  0  0  0  0  0  0  0  0  0  0
   31.7244   81.2180   92.3098 H   0  0  0  0  0  0  0  0  0  0  0  0
   32.1215   78.5821   90.7400 H   0  0  0  0  0  0  0  0  0  0  0  0
   32.4082   79.5249   94.9422 H   0  0  0  0  0  0  0  0  0  0  0  0
   31.4269   76.2836   91.3117 H   0  0  0  0  0  0  0  0  0  0  0  0
   31.7213   77.2161   95.4948 H   0  0  0  0  0  0  0  0  0  0  0  0
   31.2211   75.5965   93.6856 H   0  0  0  0  0  0  0  0  0  0  0  0
  1  2  2  0
  1  3  1  0
  2  4  1  0
  3  5  2  0
  4  6  2  0
  5  6  1  0
  4  7  1  0
  7  8  1  0
  9 10  1  0
 11 12  2  0
  1 13  1  0
  9 13  1  0
 10 14  1  0
 11 14  1  0
 14 15  1  0
 13 16  1  0
 15 16  1  0
 11 17  1  0
 17 18  2  0
 17 19  1  0
 18 20  1  0
 19 21  2  0
 20 22  1  0
 20 23  2  0
 21 23  1  0
 22 24  1  0
 24 25  1  0
 25 26  2  0
 25 27  1  0
 26 28  1  0
 27 29  2  0
 28 30  2  0
 29 30  1  0
  2 31  1  0
  3 32  1  0
  5 33  1  0
  6 34  1  0
  7 35  1  6
  7 36  1  0
  8 37  1  0
  8 38  1  0
  9 39  1  1
  9 40  1  0
 10 41  1  1
 10 42  1  0
 13 43  1  6
 15 44  1  6
 15 45  1  0
 16 46  1  6
 16 47  1  0
 18 48  1  0
 19 49  1  0
 22 50  1  1
 22 51  1  0
 23 52  1  0
 24 53  1  1
 24 54  1  0
 26 55  1  0
 27 56  1  0
 28 57  1  0
 29 58  1  0
 30 59  1  0
M  END
