7OLI_8HG_B_301
     RDKit          3D

 33 35  0  0  0  0  0  0  0  0999 V2000
   11.3207   26.3014   33.2143 O   0  0  0  0  0  0  0  0  0  0  0  0
   10.5116   25.3826   33.1515 C   0  0  0  0  0  0  0  0  0  0  0  0
   10.8412   24.1181   33.6552 N   0  0  0  0  0  4  0  0  0  0  0  0
    9.9738   23.0125   33.6701 C   0  0  0  0  0  0  0  0  0  0  0  0
   10.4293   21.7867   34.1768 N   0  0  0  0  0  0  0  0  0  0  0  0
    8.6651   23.1348   33.1743 N   0  0  0  0  0  0  0  0  0  0  0  0
    8.2999   24.4020   32.6513 C   0  0  0  0  0  0  0  0  0  0  0  0
    9.1782   25.4706   32.6023 C   0  0  0  0  0  0  0  0  0  0  0  0
    8.5470   26.6031   32.0400 N   0  0  0  0  0  4  0  0  0  0  0  0
    7.2027   26.1645   31.7184 C   0  0  0  0  0  0  0  0  0  0  0  0
    6.2819   26.7965   31.2120 O   0  0  0  0  0  0  0  0  0  0  0  0
    7.0803   24.7512   32.0686 N   0  0  0  0  0  4  0  0  0  0  0  0
    5.8427   23.9618   32.0062 C   0  0  2  0  0  0  0  0  0  0  0  0
    6.2028   22.8935   33.1370 O   0  0  0  0  0  0  0  0  0  0  0  0
    5.6288   23.2483   30.9134 C   0  0  0  0  0  0  0  0  0  0  0  0
    4.9368   21.9711   31.4309 C   0  0  2  0  0  0  0  0  0  0  0  0
    3.5362   22.1175   31.4901 O   0  0  0  0  0  0  0  0  0  0  0  0
    5.4981   21.7668   32.8463 C   0  0  1  0  0  0  0  0  0  0  0  0
    6.4757   20.5802   32.9569 C   0  0  0  0  0  0  0  0  0  0  0  0
    7.1035   20.5840   34.2399 O   0  0  0  0  0  0  0  0  0  0  0  0
   11.7452   23.9949   34.0252 H   0  0  0  0  0  0  0  0  0  0  0  0
   11.3476   21.7078   34.5228 H   0  0  0  0  0  0  0  0  0  0  0  0
    9.8306   21.0051   34.1865 H   0  0  0  0  0  0  0  0  0  0  0  0
    8.9356   27.4963   31.8974 H   0  0  0  0  0  0  0  0  0  0  0  0
    4.9849   24.5973   32.0779 H   0  0  0  0  0  0  0  0  0  0  0  0
    6.5521   23.0104   30.4277 H   0  0  0  0  0  0  0  0  0  0  0  0
    5.0397   23.7711   30.1891 H   0  0  0  0  0  0  0  0  0  0  0  0
    5.1230   21.1424   30.7802 H   0  0  0  0  0  0  0  0  0  0  0  0
    3.3131   22.8610   32.0717 H   0  0  0  0  0  0  0  0  0  0  0  0
    4.6804   21.5680   33.5071 H   0  0  0  0  0  0  0  0  0  0  0  0
    7.2234   20.6647   32.1961 H   0  0  0  0  0  0  0  0  0  0  0  0
    5.9343   19.6657   32.8328 H   0  0  0  0  0  0  0  0  0  0  0  0
    7.5956   21.4116   34.3566 H   0  0  0  0  0  0  0  0  0  0  0  0
  1  2  2  0
  2  3  4  0
  3  4  4  0
  4  5  1  0
  4  6  4  0
  6  7  4  0
  2  8  4  0
  7  8  4  0
  8  9  4  0
  9 10  4  0
 10 11  2  0
  7 12  4  0
 10 12  4  0
 13 12  1  0
 13 14  1  0
 13 15  1  0
 15 16  1  0
 16 17  1  0
 14 18  1  0
 16 18  1  0
 18 19  1  0
 19 20  1  0
  3 21  1  0
  5 22  1  0
  5 23  1  0
  9 24  1  0
 13 25  1  1
 15 26  1  0
 15 27  1  0
 16 28  1  6
 17 29  1  0
 18 30  1  1
 19 31  1  0
 19 32  1  0
 20 33  1  0
M  CHG  3   3   1   9   1  12   1
M  END
