6YQV_8K2_H_308
     RDKit          3D

 10 10  0  0  0  0  0  0  0  0999 V2000
   15.5535  -10.6614   19.7721 C   0  0  0  0  0  0  0  0  0  0  0  0
   18.2508  -10.2510   20.0954 Cl  0  0  0  0  0  0  0  0  0  0  0  0
   16.6298  -10.4994   20.5782 C   0  0  0  0  0  0  0  0  0  0  0  0
   14.3705  -10.8226   20.5146 C   0  0  0  0  0  0  0  0  0  0  0  0
   16.2472  -10.5518   22.2491 S   0  0  0  0  0  0  0  0  0  0  0  0
   14.5851  -10.7754   21.8567 C   0  0  0  0  0  0  0  0  0  0  0  0
   13.3390  -10.8477   23.0957 S   0  0  2  0  0  0  0  0  0  0  0  0
   14.0317  -11.0496   24.3313 O   0  0  0  0  0  0  0  0  0  0  0  0
   12.3722  -11.7902   22.6475 O   0  0  0  0  0  0  0  0  0  0  0  0
   12.6516   -9.4154   23.1388 N   0  0  0  0  0  0  0  0  0  0  0  0
  1  3  2  0
  2  3  1  0
  1  4  1  0
  3  5  1  0
  4  6  2  0
  5  6  1  0
  6  7  1  0
  7  8  2  0
  7  9  2  0
  7 10  1  1
M  END
