5SB2_1K2_A_1006
     RDKit          3D

 50 54  0  0  0  0  0  0  0  0999 V2000
  -27.2760    5.6401   -4.8127 C   0  0  0  0  0  0  0  0  0  0  0  0
  -25.4964    1.2071   -2.9050 C   0  0  0  0  0  0  0  0  0  0  0  0
  -26.6008    1.6070   -2.4437 O   0  0  0  0  0  0  0  0  0  0  0  0
  -24.8663   -0.0081   -2.3367 C   0  0  0  0  0  0  0  0  0  0  0  0
  -24.9196   -1.8603   -0.7581 C   0  0  0  0  0  0  0  0  0  0  0  0
  -23.6885   -2.3129   -1.2385 C   0  0  0  0  0  0  0  0  0  0  0  0
  -23.0333   -1.6210   -2.2671 C   0  0  0  0  0  0  0  0  0  0  0  0
  -21.7003   -2.1094   -2.7698 C   0  0  2  0  0  0  0  0  0  0  0  0
  -19.7722   -3.4005   -1.8014 C   0  0  0  0  0  0  0  0  0  0  0  0
  -19.2659   -3.9099   -0.5905 C   0  0  0  0  0  0  0  0  0  0  0  0
  -17.9225   -4.2614   -0.5460 C   0  0  0  0  0  0  0  0  0  0  0  0
  -17.1189   -4.1151   -1.6368 C   0  0  0  0  0  0  0  0  0  0  0  0
  -15.8750   -4.9213   -0.0893 C   0  0  0  0  0  0  0  0  0  0  0  0
  -17.1455   -4.7799    0.4665 C   0  0  0  0  0  0  0  0  0  0  0  0
  -18.8930   -3.2608   -2.9136 C   0  0  0  0  0  0  0  0  0  0  0  0
  -24.8776    1.9280   -3.9809 N   0  0  0  0  0  0  0  0  0  0  0  0
  -25.4348    3.1856   -4.4680 C   0  0  1  0  0  0  0  0  0  0  0  0
  -25.7170    4.1852   -3.3524 C   0  0  1  0  0  0  0  0  0  0  0  0
  -24.5084    4.3805   -4.2638 C   0  0  1  0  0  0  0  0  0  0  0  0
  -26.8887    5.1299   -3.5531 C   0  0  0  0  0  0  0  0  0  0  0  0
  -27.6264    5.5079   -2.4180 C   0  0  0  0  0  0  0  0  0  0  0  0
  -28.7199    6.3713   -2.5325 C   0  0  0  0  0  0  0  0  0  0  0  0
  -29.0917    6.8688   -3.7825 C   0  0  0  0  0  0  0  0  0  0  0  0
  -28.3706    6.5037   -4.9205 C   0  0  0  0  0  0  0  0  0  0  0  0
  -25.5054   -0.7135   -1.3019 C   0  0  0  0  0  0  0  0  0  0  0  0
  -21.1301   -3.0484   -1.8577 O   0  0  0  0  0  0  0  0  0  0  0  0
  -15.8641   -4.5119   -1.3798 N   0  0  0  0  0  0  0  0  0  0  0  0
  -17.5785   -3.6221   -2.8122 N   0  0  0  0  0  0  0  0  0  0  0  0
  -23.6187   -0.4620   -2.8026 C   0  0  0  0  0  0  0  0  0  0  0  0
  -25.7326   -2.7345    0.5273 Cl  0  0  0  0  0  0  0  0  0  0  0  0
  -26.7430    5.3808   -5.7162 H   0  0  0  0  0  0  0  0  0  0  0  0
  -23.2412   -3.2021   -0.8111 H   0  0  0  0  0  0  0  0  0  0  0  0
  -21.0167   -1.2384   -2.8502 H   0  0  0  0  0  0  0  0  0  0  0  0
  -21.7729   -2.5598   -3.7834 H   0  0  0  0  0  0  0  0  0  0  0  0
  -19.9027   -4.0288    0.2771 H   0  0  0  0  0  0  0  0  0  0  0  0
  -15.0056   -5.3048    0.4283 H   0  0  0  0  0  0  0  0  0  0  0  0
  -17.4529   -5.0246    1.4746 H   0  0  0  0  0  0  0  0  0  0  0  0
  -19.2445   -2.8627   -3.8533 H   0  0  0  0  0  0  0  0  0  0  0  0
  -24.1054    1.4862   -4.5279 H   0  0  0  0  0  0  0  0  0  0  0  0
  -26.0849    3.1631   -5.3669 H   0  0  0  0  0  0  0  0  0  0  0  0
  -25.4624    3.8463   -2.3238 H   0  0  0  0  0  0  0  0  0  0  0  0
  -23.5362    4.1463   -3.7798 H   0  0  0  0  0  0  0  0  0  0  0  0
  -24.5928    5.1676   -5.0407 H   0  0  0  0  0  0  0  0  0  0  0  0
  -27.3555    5.1326   -1.4387 H   0  0  0  0  0  0  0  0  0  0  0  0
  -29.2797    6.6543   -1.6505 H   0  0  0  0  0  0  0  0  0  0  0  0
  -29.9386    7.5371   -3.8693 H   0  0  0  0  0  0  0  0  0  0  0  0
  -28.6601    6.8903   -5.8892 H   0  0  0  0  0  0  0  0  0  0  0  0
  -26.4641   -0.3809   -0.9229 H   0  0  0  0  0  0  0  0  0  0  0  0
  -15.0504   -4.5067   -2.0339 H   0  0  0  0  0  0  0  0  0  0  0  0
  -23.0893    0.0899   -3.5685 H   0  0  0  0  0  0  0  0  0  0  0  0
  2  3  2  0
  2  4  1  0
  5  6  2  0
  6  7  1  0
  7  8  1  0
  9 10  2  0
 10 11  1  0
 11 12  2  0
 11 14  1  0
 13 14  2  0
  9 15  1  0
  2 16  1  0
 17 16  1  0
 17 18  1  0
 17 19  1  0
 18 19  1  0
 18 20  1  0
  1 20  2  0
 20 21  1  0
 21 22  2  0
 22 23  1  0
 23 24  2  0
  1 24  1  0
  4 25  2  0
  5 25  1  0
  8 26  1  0
  9 26  1  0
 12 27  1  0
 13 27  1  0
 12 28  1  0
 15 28  2  0
  4 29  1  0
  7 29  2  0
  5 30  1  0
  1 31  1  0
  6 32  1  0
  8 33  1  6
  8 34  1  0
 10 35  1  0
 13 36  1  0
 14 37  1  0
 15 38  1  0
 16 39  1  0
 17 40  1  6
 18 41  1  1
 19 42  1  1
 19 43  1  0
 21 44  1  0
 22 45  1  0
 23 46  1  0
 24 47  1  0
 25 48  1  0
 27 49  1  0
 29 50  1  0
M  END
