1LPZ_CMB_B_301
     RDKit          3D

 54 57  0  0  0  0  0  0  0  0999 V2000
    4.4749   10.8293   23.3080 C   0  0  0  0  0  0  0  0  0  0  0  0
    5.8256   10.4446   23.2767 C   0  0  0  0  0  0  0  0  0  0  0  0
    6.1289    9.1216   22.9325 C   0  0  0  0  0  0  0  0  0  0  0  0
    5.1334    8.2204   22.6395 C   0  0  0  0  0  0  0  0  0  0  0  0
    3.7782    8.5728   22.6603 C   0  0  0  0  0  0  0  0  0  0  0  0
    3.4573    9.9028   23.0028 C   0  0  0  0  0  0  0  0  0  0  0  0
    7.3459    8.5344   22.8510 N   0  0  0  0  0  0  0  0  0  0  0  0
    7.1017    7.2365   22.5122 C   0  0  0  0  0  0  0  0  0  0  0  0
    5.7366    7.0105   22.3725 C   0  0  0  0  0  0  0  0  0  0  0  0
    2.7068    7.5696   22.3468 C   0  0  2  0  0  0  0  0  0  0  0  0
    8.1264    6.1907   22.3238 C   0  0  0  0  0  0  0  0  0  0  0  0
    7.8410    4.8294   22.6770 N   0  0  0  0  0  0  0  0  0  0  0  0
    8.8422    3.7700   22.5797 C   0  0  2  0  0  0  0  0  0  0  0  0
    8.5344    2.8698   21.4144 C   0  0  0  0  0  0  0  0  0  0  0  0
    8.6323    9.1187   23.2563 C   0  0  1  0  0  0  0  0  0  0  0  0
    8.9716    8.6996   24.6632 C   0  0  0  0  0  0  0  0  0  0  0  0
    8.3430    9.3197   25.7526 C   0  0  0  0  0  0  0  0  0  0  0  0
    8.6119    8.8956   27.0548 C   0  0  0  0  0  0  0  0  0  0  0  0
    9.5050    7.8461   27.2833 C   0  0  0  0  0  0  0  0  0  0  0  0
   10.1487    7.2109   26.2062 C   0  0  0  0  0  0  0  0  0  0  0  0
    9.8712    7.6459   24.8964 C   0  0  0  0  0  0  0  0  0  0  0  0
    7.6275    1.8089   21.5688 C   0  0  0  0  0  0  0  0  0  0  0  0
    7.3150    0.9845   20.4823 C   0  0  0  0  0  0  0  0  0  0  0  0
    7.9044    1.2173   19.2353 C   0  0  0  0  0  0  0  0  0  0  0  0
    8.8055    2.2747   19.0728 C   0  0  0  0  0  0  0  0  0  0  0  0
    9.1193    3.1003   20.1582 C   0  0  0  0  0  0  0  0  0  0  0  0
   11.0831    6.0802   26.4358 C   0  0  0  0  0  0  0  0  0  0  0  0
   12.0310    5.8497   25.5815 N   0  0  0  0  0  0  0  0  0  0  0  0
    6.1797   -0.3375   20.6829 Cl  0  0  0  0  0  0  0  0  0  0  0  0
    9.5382    2.5694   17.5064 Cl  0  0  0  0  0  0  0  0  0  0  0  0
    9.2455    6.4906   21.8289 O   0  0  0  0  0  0  0  0  0  0  0  0
   10.9594    5.2459   27.5945 N   0  0  0  0  0  0  0  0  0  0  0  0
    4.2133   11.8464   23.5700 H   0  0  0  0  0  0  0  0  0  0  0  0
    6.5936   11.1670   23.5127 H   0  0  0  0  0  0  0  0  0  0  0  0
    2.4242   10.2250   23.0370 H   0  0  0  0  0  0  0  0  0  0  0  0
    5.2489    6.0813   22.1075 H   0  0  0  0  0  0  0  0  0  0  0  0
    3.1571    6.5585   22.2608 H   0  0  0  0  0  0  0  0  0  0  0  0
    2.2167    7.8332   21.3860 H   0  0  0  0  0  0  0  0  0  0  0  0
    1.9305    7.5448   23.1409 H   0  0  0  0  0  0  0  0  0  0  0  0
    6.9001    4.5857   23.0604 H   0  0  0  0  0  0  0  0  0  0  0  0
    8.8317    3.1663   23.5132 H   0  0  0  0  0  0  0  0  0  0  0  0
    9.8560    4.2190   22.4931 H   0  0  0  0  0  0  0  0  0  0  0  0
    9.4319    8.8185   22.5492 H   0  0  0  0  0  0  0  0  0  0  0  0
    8.5990   10.2256   23.1950 H   0  0  0  0  0  0  0  0  0  0  0  0
    7.6397   10.1268   25.5950 H   0  0  0  0  0  0  0  0  0  0  0  0
    8.1168    9.3741   27.8899 H   0  0  0  0  0  0  0  0  0  0  0  0
    9.6660    7.5186   28.3017 H   0  0  0  0  0  0  0  0  0  0  0  0
   10.3627    7.1700   24.0577 H   0  0  0  0  0  0  0  0  0  0  0  0
    7.1625    1.6277   22.5304 H   0  0  0  0  0  0  0  0  0  0  0  0
    7.6609    0.5799   18.3945 H   0  0  0  0  0  0  0  0  0  0  0  0
    9.8132    3.9207   20.0210 H   0  0  0  0  0  0  0  0  0  0  0  0
   12.7108    5.0669   25.7094 H   0  0  0  0  0  0  0  0  0  0  0  0
   11.7819    4.7442   27.9950 H   0  0  0  0  0  0  0  0  0  0  0  0
   10.0226    5.0612   28.0180 H   0  0  0  0  0  0  0  0  0  0  0  0
  1  2  2  0
  2  3  1  0
  3  4  2  0
  4  5  1  0
  1  6  1  0
  5  6  2  0
  3  7  1  0
  7  8  1  0
  4  9  1  0
  8  9  2  0
  5 10  1  0
  8 11  1  0
 11 12  1  0
 12 13  1  0
 13 14  1  0
  7 15  1  0
 15 16  1  0
 16 17  2  0
 17 18  1  0
 18 19  2  0
 19 20  1  0
 16 21  1  0
 20 21  2  0
 14 22  2  0
 22 23  1  0
 23 24  2  0
 24 25  1  0
 14 26  1  0
 25 26  2  0
 20 27  1  0
 27 28  2  0
 23 29  1  0
 25 30  1  0
 11 31  2  0
 27 32  1  0
  1 33  1  0
  2 34  1  0
  6 35  1  0
  9 36  1  0
 10 37  1  6
 10 38  1  0
 10 39  1  0
 12 40  1  0
 13 41  1  1
 13 42  1  0
 15 43  1  6
 15 44  1  0
 17 45  1  0
 18 46  1  0
 19 47  1  0
 21 48  1  0
 22 49  1  0
 24 50  1  0
 26 51  1  0
 28 52  1  0
 32 53  1  0
 32 54  1  0
M  END
