7YZU_DO7_A_401
     RDKit          3D

 30 30  0  0  0  0  0  0  0  0999 V2000
   11.1952  -24.0096  -17.1784 C   0  0  0  0  0  0  0  0  0  0  0  0
   12.9421  -23.1014  -18.8068 C   0  0  2  0  0  0  0  0  0  0  0  0
   13.9499  -21.9657  -18.9048 C   0  0  2  0  0  0  0  0  0  0  0  0
   13.2105  -20.6300  -18.8627 C   0  0  1  0  0  0  0  0  0  0  0  0
   12.9337  -21.2064  -15.3766 C   0  0  0  0  0  0  0  0  0  0  0  0
   12.3492  -20.5438  -17.6038 C   0  0  2  0  0  0  0  0  0  0  0  0
   12.2385  -22.9508  -17.4678 C   0  0  1  0  0  0  0  0  0  0  0  0
   13.2283  -20.4039  -16.5177 O   0  0  0  0  0  0  0  0  0  0  0  0
   11.5366  -21.6971  -17.4656 O   0  0  0  0  0  0  0  0  0  0  0  0
   11.7420  -25.4752  -16.3279 S   0  0  1  0  0  6  0  0  0  0  0  0
   12.0882  -25.0185  -15.0146 O   0  0  0  0  0  0  0  0  0  0  0  0
   10.5764  -26.3835  -16.3949 O   0  0  0  0  0  0  0  0  0  0  0  0
   12.9991  -25.9580  -17.0418 O   0  0  0  0  0  0  0  0  0  0  0  0
   13.5891  -24.3533  -18.9004 O   0  0  0  0  0  0  0  0  0  0  0  0
   14.7358  -22.0632  -20.0924 O   0  0  0  0  0  0  0  0  0  0  0  0
   14.1166  -19.5242  -18.8688 O   0  0  0  0  0  0  0  0  0  0  0  0
   10.4324  -23.5558  -16.5810 H   0  0  0  0  0  0  0  0  0  0  0  0
   10.8731  -24.3512  -18.1399 H   0  0  0  0  0  0  0  0  0  0  0  0
   12.2375  -23.0576  -19.6108 H   0  0  0  0  0  0  0  0  0  0  0  0
   14.6196  -22.0330  -18.0731 H   0  0  0  0  0  0  0  0  0  0  0  0
   12.5979  -20.5807  -19.7386 H   0  0  0  0  0  0  0  0  0  0  0  0
   13.6611  -21.0224  -14.6137 H   0  0  0  0  0  0  0  0  0  0  0  0
   11.9601  -20.9588  -15.0081 H   0  0  0  0  0  0  0  0  0  0  0  0
   12.9587  -22.2402  -15.6514 H   0  0  0  0  0  0  0  0  0  0  0  0
   11.6814  -19.7093  -17.6545 H   0  0  0  0  0  0  0  0  0  0  0  0
   13.0070  -23.0307  -16.7275 H   0  0  0  0  0  0  0  0  0  0  0  0
   13.7022  -25.2974  -16.9408 H   0  0  0  0  0  0  0  0  0  0  0  0
   14.2401  -24.4350  -18.1860 H   0  0  0  0  0  0  0  0  0  0  0  0
   14.1572  -22.0055  -20.8688 H   0  0  0  0  0  0  0  0  0  0  0  0
   14.6767  -19.5607  -18.0777 H   0  0  0  0  0  0  0  0  0  0  0  0
  2  3  1  0
  3  4  1  0
  4  6  1  0
  7  1  1  0
  2  7  1  0
  6  8  1  0
  5  8  1  0
  7  9  1  0
  6  9  1  0
  1 10  1  0
 10 11  2  0
 10 12  2  0
 10 13  1  1
  2 14  1  0
  3 15  1  0
  4 16  1  0
  1 17  1  0
  1 18  1  0
  2 19  1  1
  3 20  1  6
  4 21  1  1
  5 22  1  0
  5 23  1  0
  5 24  1  0
  6 25  1  1
  7 26  1  6
 13 27  1  0
 14 28  1  0
 15 29  1  0
 16 30  1  0
M  END
