7ULC_56B_B_402
     RDKit          3D

 57 60  0  0  0  0  0  0  0  0999 V2000
   45.5835    8.6297   57.0658 N   0  0  0  0  0  0  0  0  0  0  0  0
   44.0788    7.4780   55.4228 C   0  0  1  0  0  0  0  0  0  0  0  0
   43.7086    6.1728   55.0542 O   0  0  0  0  0  0  0  0  0  0  0  0
   49.1293    9.5944   54.6072 P   0  0  2  0  0  5  0  0  0  0  0  0
   45.3887    7.4388   56.2141 C   0  0  1  0  0  0  0  0  0  0  0  0
   43.2738   11.9626   58.1935 N   0  0  0  0  0  0  0  0  0  0  0  0
   41.0939   13.8062   60.3197 O   0  0  0  0  0  0  0  0  0  0  0  0
   44.6308    9.4553   57.5728 C   0  0  0  0  0  0  0  0  0  0  0  0
   47.9724    8.5208   57.4103 N   0  0  0  0  0  0  0  0  0  0  0  0
   39.2964   14.3750   58.5112 O   0  0  0  0  0  0  0  0  0  0  0  0
   45.2063   10.4429   58.3668 C   0  0  0  0  0  0  0  0  0  0  0  0
   50.3529    8.5440   57.8046 N   0  0  0  0  0  0  0  0  0  0  0  0
   47.5411   11.8178   59.6819 O   0  0  0  0  0  0  0  0  0  0  0  0
   44.4764   11.6132   58.9661 C   0  0  2  0  0  0  0  0  0  0  0  0
   48.8998   10.2342   58.7668 N   0  0  0  0  0  0  0  0  0  0  0  0
   46.4331    7.3539   55.2673 O   0  0  0  0  0  0  0  0  0  0  0  0
   42.6954   13.2705   58.5642 C   0  0  2  0  0  0  0  0  0  0  0  0
   48.1379    8.7804   53.4825 O   0  0  0  0  0  0  0  0  0  0  0  0
   41.2705   13.0731   59.1293 C   0  0  2  0  0  0  0  0  0  0  0  0
   50.6916    8.9500   54.5278 O   0  0  0  0  0  0  0  0  0  0  0  0
   40.3100   13.5410   58.0136 C   0  0  2  0  0  0  0  0  0  0  0  0
   41.1917   14.2848   57.0723 C   0  0  0  0  0  0  0  0  0  0  0  0
   48.5867    9.4100   56.0074 O   0  0  0  0  0  0  0  0  0  0  0  0
   42.4732   14.1384   57.3623 C   0  0  0  0  0  0  0  0  0  0  0  0
   43.7631    7.8865   53.0609 O   0  0  0  0  0  0  0  0  0  0  0  0
   46.5643   10.1740   58.3743 C   0  0  0  0  0  0  0  0  0  0  0  0
   46.7455    9.0659   57.5994 C   0  0  0  0  0  0  0  0  0  0  0  0
   49.0558    9.1068   57.9995 C   0  0  0  0  0  0  0  0  0  0  0  0
   47.6662   10.7863   58.9702 C   0  0  0  0  0  0  0  0  0  0  0  0
   45.9690    7.9287   54.0601 C   0  0  2  0  0  0  0  0  0  0  0  0
   46.8028    9.1666   53.7092 C   0  0  1  0  0  0  0  0  0  0  0  0
   44.4831    8.2679   54.2050 C   0  0  2  0  0  0  0  0  0  0  0  0
   49.1971   11.2459   54.2391 O   0  0  0  0  0  0  0  0  0  0  0  0
   43.2322    7.9735   55.9434 H   0  0  0  0  0  0  0  0  0  0  0  0
   42.7951    6.2363   54.6711 H   0  0  0  0  0  0  0  0  0  0  0  0
   45.4149    6.5375   56.8643 H   0  0  0  0  0  0  0  0  0  0  0  0
   43.4776   11.9138   57.1664 H   0  0  0  0  0  0  0  0  0  0  0  0
   40.2149   13.5514   60.7073 H   0  0  0  0  0  0  0  0  0  0  0  0
   43.5702    9.3691   57.3847 H   0  0  0  0  0  0  0  0  0  0  0  0
   38.9758   14.9188   57.7448 H   0  0  0  0  0  0  0  0  0  0  0  0
   51.1841    8.9325   58.3034 H   0  0  0  0  0  0  0  0  0  0  0  0
   50.4834    7.7363   57.1559 H   0  0  0  0  0  0  0  0  0  0  0  0
   44.1643   11.3357   59.9955 H   0  0  0  0  0  0  0  0  0  0  0  0
   45.1372   12.4973   59.0728 H   0  0  0  0  0  0  0  0  0  0  0  0
   49.7376   10.6777   59.2071 H   0  0  0  0  0  0  0  0  0  0  0  0
   43.3365   13.8022   59.3029 H   0  0  0  0  0  0  0  0  0  0  0  0
   41.0786   12.0011   59.3582 H   0  0  0  0  0  0  0  0  0  0  0  0
   50.6690    8.1582   55.1225 H   0  0  0  0  0  0  0  0  0  0  0  0
   39.8738   12.6576   57.4921 H   0  0  0  0  0  0  0  0  0  0  0  0
   40.8353   14.8432   56.2124 H   0  0  0  0  0  0  0  0  0  0  0  0
   43.2624   14.5842   56.7681 H   0  0  0  0  0  0  0  0  0  0  0  0
   43.2924    7.0440   53.2931 H   0  0  0  0  0  0  0  0  0  0  0  0
   46.1016    7.1740   53.2526 H   0  0  0  0  0  0  0  0  0  0  0  0
   46.7396    9.8905   54.5541 H   0  0  0  0  0  0  0  0  0  0  0  0
   46.3694    9.6272   52.7925 H   0  0  0  0  0  0  0  0  0  0  0  0
   44.3373    9.3567   54.4091 H   0  0  0  0  0  0  0  0  0  0  0  0
   50.0442   11.3586   53.7381 H   0  0  0  0  0  0  0  0  0  0  0  0
  2  3  1  0
  5  1  1  0
  2  5  1  0
  1  8  1  0
  8 11  2  0
 11 14  1  0
  6 14  1  0
  5 16  1  0
 17  6  1  0
  4 18  1  6
 17 19  1  0
 19  7  1  0
  4 20  1  0
 21 10  1  0
 19 21  1  0
 21 22  1  0
  4 23  2  0
 22 24  2  0
 17 24  1  0
 11 26  1  0
  9 27  1  0
 26 27  2  0
  1 27  1  0
 12 28  1  0
 15 28  1  0
  9 28  2  0
 15 29  1  0
 13 29  2  0
 26 29  1  0
 16 30  1  0
 30 31  1  0
 18 31  1  0
 32 25  1  0
 30 32  1  0
  2 32  1  0
  4 33  1  0
  2 34  1  1
  3 35  1  0
  5 36  1  1
  6 37  1  0
  7 38  1  0
  8 39  1  0
 10 40  1  0
 12 41  1  0
 12 42  1  0
 14 43  1  1
 14 44  1  0
 15 45  1  0
 17 46  1  1
 19 47  1  1
 20 48  1  0
 21 49  1  6
 22 50  1  0
 24 51  1  0
 25 52  1  0
 30 53  1  6
 31 54  1  1
 31 55  1  0
 32 56  1  1
 33 57  1  0
M  END
