8A1H_DLZ_A_602
     RDKit          3D

 23 24  0  0  0  0  0  0  0  0999 V2000
  -57.1915   26.0379   -7.7756 C   0  0  0  0  0  0  0  0  0  0  0  0
  -55.9144   25.9637   -8.5281 C   0  0  0  0  0  0  0  0  0  0  0  0
  -55.5162   26.9909   -9.3550 C   0  0  0  0  0  0  0  0  0  0  0  0
  -56.4171   28.1709   -9.4556 C   0  0  0  0  0  0  0  0  0  0  0  0
  -54.3757   26.9806  -10.0624 N   0  0  0  0  0  0  0  0  0  0  0  0
  -53.5373   25.9223   -9.9913 C   0  0  0  0  0  0  0  0  0  0  0  0
  -52.3528   25.8594  -10.6966 C   0  0  0  0  0  0  0  0  0  0  0  0
  -52.0234   26.8090  -11.4370 O   0  0  0  0  0  0  0  0  0  0  0  0
  -51.5939   24.7578  -10.5513 N   0  0  0  0  0  0  0  0  0  0  0  0
  -51.9794   23.7420   -9.7387 C   0  0  0  0  0  0  0  0  0  0  0  0
  -51.2409   22.7322   -9.6323 O   0  0  0  0  0  0  0  0  0  0  0  0
  -53.1260   23.7703   -9.0375 N   0  0  0  0  0  0  0  0  0  0  0  0
  -53.9586   24.8294   -9.1128 C   0  0  0  0  0  0  0  0  0  0  0  0
  -55.1200   24.8857   -8.4181 N   0  0  0  0  0  0  0  0  0  0  0  0
  -55.4242   23.7447   -7.5813 C   0  0  0  0  0  0  0  0  0  0  0  0
  -54.8967   23.9054   -6.1562 C   0  0  2  0  0  0  0  0  0  0  0  0
  -53.5521   24.1808   -6.1406 O   0  0  0  0  0  0  0  0  0  0  0  0
  -55.2717   22.6563   -5.4217 C   0  0  2  0  0  0  0  0  0  0  0  0
  -56.6400   22.7460   -5.1021 O   0  0  0  0  0  0  0  0  0  0  0  0
  -54.5515   22.4730   -4.1229 C   0  0  2  0  0  0  0  0  0  0  0  0
  -53.2350   22.0662   -4.2860 O   0  0  0  0  0  0  0  0  0  0  0  0
  -55.2297   21.5116   -3.1843 C   0  0  0  0  0  0  0  0  0  0  0  0
  -54.4297   21.5015   -2.0193 O   0  0  0  0  0  0  0  0  0  0  0  0
  1  2  1  0
  2  3  2  0
  3  4  1  0
  3  5  1  0
  5  6  2  0
  6  7  1  0
  7  8  2  0
  7  9  1  0
  9 10  1  0
 10 11  2  0
 10 12  1  0
  6 13  1  0
 12 13  2  0
  2 14  1  0
 13 14  1  0
 14 15  1  0
 15 16  1  0
 16 17  1  6
 16 18  1  0
 18 19  1  1
 18 20  1  0
 20 21  1  6
 20 22  1  0
 22 23  1  0
M  END
$$$$
