@<TRIPOS>MOLECULE
1K3U_IAD_A_801
 35 36 0 0 0
SMALL
GASTEIGER

@<TRIPOS>ATOM
      1 OD1        -0.9847   -1.2857    1.8387 O.3     1  ASP1       -0.4806
      2 CG         -0.3710   -0.1323    2.3171 C.2     1  ASP1        0.3070
      3 OD2        -1.0704    0.8640    2.6448 O.2     1  ASP1       -0.2509
      4 CB          1.1218   -0.0800    2.4474 C.3     1  ASP1        0.0735
      5 CA          1.7362    1.0198    1.5547 C.3     1  ASP1        0.1303
      6 C           3.2406    1.0661    1.6505 C.2     1  ASP1        0.3258
      7 O           3.8328    0.6522    2.6839 O.2     1  ASP1       -0.2489
      8 OXT         3.9802    1.6386    0.6192 O.3     1  ASP1       -0.4793
      9 N           1.3146    0.8611    0.1572 N.am    1  ASP1       -0.3017
     10 C           1.6339   -0.2823   -0.6528 C.2     0  UNK0        0.2181
     11 O           2.4503   -1.1508   -0.2419 O.2     0  UNK0       -0.2754
     12 C           0.9591   -0.4786   -1.9750 C.3     0  UNK0        0.0511
     13 C          -0.2551   -1.3389   -1.8013 C.ar    0  UNK0       -0.0136
     14 C          -0.2978   -2.7286   -1.8661 C.ar    0  UNK0        0.0064
     15 N          -1.5340   -3.1786   -1.5523 N.ar    0  UNK0       -0.3604
     16 C          -1.5213   -0.9443   -1.4129 C.ar    0  UNK0        0.0033
     17 C          -2.0551    0.3173   -1.1474 C.ar    0  UNK0       -0.0523
     18 C          -2.2682   -2.0868   -1.2762 C.ar    0  UNK0        0.0467
     19 C          -3.6005   -2.0466   -0.8670 C.ar    0  UNK0       -0.0378
     20 C          -4.1670   -0.7879   -0.5942 C.ar    0  UNK0       -0.0598
     21 C          -3.3976    0.3885   -0.7333 C.ar    0  UNK0       -0.0611
     22 HD1        -1.9922   -1.3407    1.7542 H       1  ASP1        0.2951
     23 HB1         1.5500   -1.0718    2.1887 H       1  ASP1        0.0401
     24 HB2         1.3694    0.1236    3.5118 H       1  ASP1        0.0401
     25 HA          1.3641    2.0018    1.9225 H       1  ASP1        0.0620
     26 HXT         4.9898    1.7010    0.6757 H       1  ASP1        0.2951
     27 H           0.7277    1.6184   -0.2599 H       1  ASP1        0.1495
     28 H           0.6706    0.5017   -2.4099 H       0  UNK0        0.0408
     29 H           1.6625   -0.9641   -2.6852 H       0  UNK0        0.0408
     30 H           0.5358   -3.3742   -2.1098 H       0  UNK0        0.0810
     31 H          -1.8443   -4.1754   -1.5128 H       0  UNK0        0.1653
     32 H          -1.4628    1.2155   -1.2556 H       0  UNK0        0.0624
     33 H          -4.1794   -2.9543   -0.7551 H       0  UNK0        0.0638
     34 H          -5.1979   -0.7212   -0.2722 H       0  UNK0        0.0618
     35 H          -3.8430    1.3514   -0.5188 H       0  UNK0        0.0618
@<TRIPOS>BOND
     1     1     2    1
     2     2     3    2
     3     2     4    1
     4     5     4    1
     5     5     6    1
     6     6     7    2
     7     6     8    1
     8     5     9    1
     9     9    10   am
    10    10    11    2
    11    10    12    1
    12    12    13    1
    13    13    14   ar
    14    14    15   ar
    15    13    16   ar
    16    16    17   ar
    17    15    18   ar
    18    16    18   ar
    19    18    19   ar
    20    19    20   ar
    21    17    21   ar
    22    20    21   ar
    23     1    22    1
    24     4    23    1
    25     4    24    1
    26     5    25    1
    27     8    26    1
    28     9    27    1
    29    12    28    1
    30    12    29    1
    31    14    30    1
    32    15    31    1
    33    17    32    1
    34    19    33    1
    35    20    34    1
    36    21    35    1
