8A1H_DLZ_A_602
     RDKit          3D

 41 42  0  0  0  0  0  0  0  0999 V2000
  -79.1580   18.3535  -14.4170 C   0  0  1  0  0  0  0  0  0  0  0  0
  -79.1393   18.6643  -12.9300 C   0  0  0  0  0  0  0  0  0  0  0  0
  -78.1962   19.6120  -12.4278 C   0  0  0  0  0  0  0  0  0  0  0  0
  -77.0936   20.1836  -13.2735 C   0  0  1  0  0  0  0  0  0  0  0  0
  -78.2877   20.0534  -11.1481 N   0  0  0  0  0  0  0  0  0  0  0  0
  -79.2511   19.6050  -10.3187 C   0  0  0  0  0  0  0  0  0  0  0  0
  -79.3929   20.0784   -9.0158 C   0  0  0  0  0  0  0  0  0  0  0  0
  -78.5996   20.9473   -8.5627 O   0  0  0  0  0  0  0  0  0  0  0  0
  -80.3997   19.6014   -8.2328 N   0  0  0  0  0  0  0  0  0  0  0  0
  -81.2814   18.6670   -8.6920 C   0  0  0  0  0  0  0  0  0  0  0  0
  -82.2066   18.2555   -7.9436 O   0  0  0  0  0  0  0  0  0  0  0  0
  -81.1708   18.1702   -9.9527 N   0  0  0  0  0  0  0  0  0  0  0  0
  -80.1857   18.5813  -10.7946 C   0  0  0  0  0  0  0  0  0  0  0  0
  -80.0521   18.0754  -12.0645 N   0  0  0  0  0  0  0  0  0  0  0  0
  -80.9007   16.9236  -12.4667 C   0  0  1  0  0  0  0  0  0  0  0  0
  -80.1629   15.5557  -12.4520 C   0  0  2  0  0  0  0  0  0  0  0  0
  -80.6941   14.7054  -11.4688 O   0  0  0  0  0  0  0  0  0  0  0  0
  -78.6079   15.6590  -12.3457 C   0  0  2  0  0  0  0  0  0  0  0  0
  -78.2801   16.4253  -11.2123 O   0  0  0  0  0  0  0  0  0  0  0  0
  -77.9265   16.3056  -13.5793 C   0  0  2  0  0  0  0  0  0  0  0  0
  -78.7830   16.2545  -14.6888 O   0  0  0  0  0  0  0  0  0  0  0  0
  -76.6147   15.5789  -13.9229 C   0  0  2  0  0  0  0  0  0  0  0  0
  -76.4320   14.4719  -13.0812 O   0  0  0  0  0  0  0  0  0  0  0  0
  -79.9117   18.9839  -14.9312 H   0  0  0  0  0  0  0  0  0  0  0  0
  -78.2042   18.5934  -14.9243 H   0  0  0  0  0  0  0  0  0  0  0  0
  -79.3674   17.2824  -14.5929 H   0  0  0  0  0  0  0  0  0  0  0  0
  -76.6013   19.3798  -13.8607 H   0  0  0  0  0  0  0  0  0  0  0  0
  -77.5020   20.9598  -13.9539 H   0  0  0  0  0  0  0  0  0  0  0  0
  -76.3188   20.6567  -12.6331 H   0  0  0  0  0  0  0  0  0  0  0  0
  -80.5028   19.9642   -7.2573 H   0  0  0  0  0  0  0  0  0  0  0  0
  -81.7780   16.8596  -11.7856 H   0  0  0  0  0  0  0  0  0  0  0  0
  -81.3503   17.0533  -13.4685 H   0  0  0  0  0  0  0  0  0  0  0  0
  -80.4015   15.1128  -13.4491 H   0  0  0  0  0  0  0  0  0  0  0  0
  -80.4202   13.7811  -11.7072 H   0  0  0  0  0  0  0  0  0  0  0  0
  -78.1827   14.6420  -12.2166 H   0  0  0  0  0  0  0  0  0  0  0  0
  -78.9758   17.1288  -11.1241 H   0  0  0  0  0  0  0  0  0  0  0  0
  -77.6820   17.3659  -13.3289 H   0  0  0  0  0  0  0  0  0  0  0  0
  -79.1100   15.3203  -14.7660 H   0  0  0  0  0  0  0  0  0  0  0  0
  -75.7510   16.2794  -13.8425 H   0  0  0  0  0  0  0  0  0  0  0  0
  -76.6525   15.2102  -14.9697 H   0  0  0  0  0  0  0  0  0  0  0  0
  -75.5603   14.5997  -12.6234 H   0  0  0  0  0  0  0  0  0  0  0  0
  1  2  1  0
  2  3  2  0
  3  4  1  0
  3  5  1  0
  5  6  2  0
  6  7  1  0
  7  8  2  0
  7  9  1  0
  9 10  1  0
 10 11  2  0
 10 12  1  0
  6 13  1  0
 12 13  2  0
  2 14  1  0
 13 14  1  0
 14 15  1  0
 15 16  1  0
 16 17  1  0
 16 18  1  0
 18 19  1  0
 18 20  1  0
 20 21  1  0
 20 22  1  0
 22 23  1  0
  1 24  1  6
  1 25  1  0
  1 26  1  0
  4 27  1  6
  4 28  1  0
  4 29  1  0
  9 30  1  0
 15 31  1  1
 15 32  1  0
 16 33  1  6
 17 34  1  0
 18 35  1  1
 19 36  1  0
 20 37  1  1
 21 38  1  0
 22 39  1  6
 22 40  1  0
 23 41  1  0
M  END
