
     RDKit          3D

 25 26  0  0  0  0  0  0  0  0999 V2000
   13.9240    8.6783   17.5247 N   0  0  0  0  0  0  0  0  0  0  0  0
   14.0961    9.5423   16.4495 C   0  0  0  0  0  0  0  0  0  0  0  0
   15.1759    9.2965   15.6478 N   0  0  0  0  0  0  0  0  0  0  0  0
   16.0273    8.2374   15.7551 C   0  0  0  0  0  0  0  0  0  0  0  0
   15.8053    7.3588   16.9125 C   0  0  0  0  0  0  0  0  0  0  0  0
   14.7879    7.6189   17.7356 C   0  0  0  0  0  0  0  0  0  0  0  0
   13.3282   10.4665   16.1897 O   0  0  0  0  0  0  0  0  0  0  0  0
   16.9211    8.0157   14.9478 O   0  0  0  0  0  0  0  0  0  0  0  0
   12.8165    8.9723   18.4452 C   0  0  1  0  0  0  0  0  0  0  0  0
   11.5047    8.2468   18.0749 C   0  0  2  0  0  0  0  0  0  0  0  0
   10.6563    8.9470   17.1620 O   0  0  0  0  0  0  0  0  0  0  0  0
   10.8251    8.1548   19.4272 C   0  0  1  0  0  0  0  0  0  0  0  0
   11.9984    7.9152   20.3733 C   0  0  2  0  0  0  0  0  0  0  0  0
   13.1487    8.5718   19.7902 O   0  0  0  0  0  0  0  0  0  0  0  0
   10.2109    9.4220   19.7185 O   0  0  0  0  0  0  0  0  0  0  0  0
   12.3382    6.4335   20.5520 C   0  0  0  0  0  0  0  0  0  0  0  0
   12.0180    6.0065   21.8615 O   0  0  0  0  0  0  0  0  0  0  0  0
   11.2697    4.5986   22.0141 P   0  0  2  0  0  5  0  0  0  0  0  0
   10.2041    4.2963   21.0149 O   0  0  0  0  0  0  0  0  0  0  0  0
   10.6818    4.6852   23.5047 O   0  0  0  0  0  0  0  0  0  0  0  0
   12.4230    3.5207   22.1556 O   0  0  0  0  0  0  0  0  0  0  0  0
   13.3198    3.4436   23.4565 P   0  0  1  0  0  5  0  0  0  0  0  0
   14.5838    2.6614   23.4043 O   0  0  0  0  0  0  0  0  0  0  0  0
   13.5473    4.9712   23.8608 O   0  0  0  0  0  0  0  0  0  0  0  0
   12.3176    2.9531   24.5974 O   0  0  0  0  0  0  0  0  0  0  0  0
  1  2  4  0
  2  3  4  0
  3  4  4  0
  4  5  4  0
  1  6  4  0
  5  6  4  0
  2  7  2  0
  4  8  2  0
  9  1  1  6
  9 10  1  0
 10 11  1  6
 10 12  1  0
 12 13  1  0
  9 14  1  0
 13 14  1  0
 12 15  1  1
 13 16  1  6
 16 17  1  0
 18 17  1  0
 18 19  2  0
 18 20  1  1
 18 21  1  0
 21 22  1  0
 22 23  2  0
 22 24  1  0
 22 25  1  0
M  END
