7ZXV_45D_A_402
     RDKit          3D

 94 95  0  0  0  0  0  0  0  0999 V2000
    8.6668    3.7066    9.9159 O   0  0  0  0  0  0  0  0  0  0  0  0
    6.9153   -4.3689  -17.1133 O   0  0  0  0  0  0  0  0  0  0  0  0
   10.5810    3.6817    6.1918 C   0  0  1  0  0  0  0  0  0  0  0  0
    4.8463   -4.7888  -13.5071 C   0  0  2  0  0  0  0  0  0  0  0  0
   11.3568    3.9428    7.5143 C   0  0  0  0  0  0  0  0  0  0  0  0
    4.9392   -5.9540  -14.5311 C   0  0  0  0  0  0  0  0  0  0  0  0
    9.2724    2.9166    6.4469 C   0  0  0  0  0  0  0  0  0  0  0  0
    6.0258   -3.8204  -13.6639 C   0  0  0  0  0  0  0  0  0  0  0  0
   10.4633    4.5270    8.6070 C   0  0  0  0  0  0  0  0  0  0  0  0
    5.1555   -5.4644  -15.9600 C   0  0  0  0  0  0  0  0  0  0  0  0
   10.2541    5.0180    5.4940 C   0  0  0  0  0  0  0  0  0  0  0  0
   11.5117    2.8647    5.2640 C   0  0  0  0  0  0  0  0  0  0  0  0
    4.8326   -5.4181  -12.0935 C   0  0  0  0  0  0  0  0  0  0  0  0
    3.5328   -4.0028  -13.7095 C   0  0  0  0  0  0  0  0  0  0  0  0
    8.6909    2.8823    7.6795 C   0  0  0  0  0  0  0  0  0  0  0  0
    6.7071   -3.7081  -14.8355 C   0  0  0  0  0  0  0  0  0  0  0  0
    9.2549    3.6733    8.8022 C   0  0  0  0  0  0  0  0  0  0  0  0
    6.3081   -4.5116  -16.0182 C   0  0  0  0  0  0  0  0  0  0  0  0
    8.5842    2.3306    5.2665 C   0  0  0  0  0  0  0  0  0  0  0  0
    6.3662   -2.9454  -12.5153 C   0  0  0  0  0  0  0  0  0  0  0  0
    7.4259    2.0918    7.9332 C   0  0  0  0  0  0  0  0  0  0  0  0
    7.8720   -2.7524  -14.9681 C   0  0  0  0  0  0  0  0  0  0  0  0
    8.7442    2.8510    4.0444 C   0  0  0  0  0  0  0  0  0  0  0  0
    5.6819   -3.0021  -11.3659 C   0  0  0  0  0  0  0  0  0  0  0  0
    8.2312    2.2129    2.8058 C   0  0  0  0  0  0  0  0  0  0  0  0
    5.9469   -2.0824  -10.2271 C   0  0  0  0  0  0  0  0  0  0  0  0
    8.0160    0.7197    2.7439 C   0  0  0  0  0  0  0  0  0  0  0  0
    5.0260   -0.9167   -9.9620 C   0  0  0  0  0  0  0  0  0  0  0  0
    8.1011    2.9820    1.7086 C   0  0  0  0  0  0  0  0  0  0  0  0
    6.9888   -2.3535   -9.4153 C   0  0  0  0  0  0  0  0  0  0  0  0
    7.7893    2.4597    0.3603 C   0  0  0  0  0  0  0  0  0  0  0  0
    7.2060   -1.6825   -8.1164 C   0  0  0  0  0  0  0  0  0  0  0  0
    8.7115    1.7839   -0.3342 C   0  0  0  0  0  0  0  0  0  0  0  0
    6.8185   -0.4168   -7.9115 C   0  0  0  0  0  0  0  0  0  0  0  0
    8.4090    1.0848   -1.6072 C   0  0  0  0  0  0  0  0  0  0  0  0
    7.1107    0.3508   -6.6703 C   0  0  0  0  0  0  0  0  0  0  0  0
    7.6275    1.7241   -2.4991 C   0  0  0  0  0  0  0  0  0  0  0  0
    7.9796   -0.1817   -5.7828 C   0  0  0  0  0  0  0  0  0  0  0  0
    9.0324   -0.2562   -1.9181 C   0  0  0  0  0  0  0  0  0  0  0  0
    6.3858    1.6534   -6.3927 C   0  0  0  0  0  0  0  0  0  0  0  0
    7.3920    1.2585   -3.8841 C   0  0  0  0  0  0  0  0  0  0  0  0
    8.2359    0.3861   -4.4429 C   0  0  0  0  0  0  0  0  0  0  0  0
   11.7848    2.9861    7.8940 H   0  0  0  0  0  0  0  0  0  0  0  0
   12.2117    4.6391    7.3353 H   0  0  0  0  0  0  0  0  0  0  0  0
    5.7920   -6.6189  -14.2601 H   0  0  0  0  0  0  0  0  0  0  0  0
    4.0151   -6.5728  -14.4977 H   0  0  0  0  0  0  0  0  0  0  0  0
   10.1485    5.5547    8.3418 H   0  0  0  0  0  0  0  0  0  0  0  0
   11.0424    4.5846    9.5529 H   0  0  0  0  0  0  0  0  0  0  0  0
    5.3588   -6.3430  -16.6116 H   0  0  0  0  0  0  0  0  0  0  0  0
    4.2424   -4.9584  -16.3436 H   0  0  0  0  0  0  0  0  0  0  0  0
   11.1807    5.6092    5.3216 H   0  0  0  0  0  0  0  0  0  0  0  0
    9.5482    5.6219    6.1053 H   0  0  0  0  0  0  0  0  0  0  0  0
    9.7785    4.8410    4.5053 H   0  0  0  0  0  0  0  0  0  0  0  0
   11.6801    1.8455    5.6781 H   0  0  0  0  0  0  0  0  0  0  0  0
   12.5005    3.3633    5.1580 H   0  0  0  0  0  0  0  0  0  0  0  0
   11.0865    2.7638    4.2407 H   0  0  0  0  0  0  0  0  0  0  0  0
    4.6530   -4.6488  -11.3116 H   0  0  0  0  0  0  0  0  0  0  0  0
    4.0243   -6.1796  -12.0142 H   0  0  0  0  0  0  0  0  0  0  0  0
    5.8046   -5.9187  -11.8824 H   0  0  0  0  0  0  0  0  0  0  0  0
    3.4188   -3.2277  -12.9220 H   0  0  0  0  0  0  0  0  0  0  0  0
    2.6584   -4.6846  -13.6548 H   0  0  0  0  0  0  0  0  0  0  0  0
    3.5225   -3.4853  -14.6925 H   0  0  0  0  0  0  0  0  0  0  0  0
    8.0255    1.4171    5.4018 H   0  0  0  0  0  0  0  0  0  0  0  0
    7.1757   -2.2388  -12.6483 H   0  0  0  0  0  0  0  0  0  0  0  0
    7.3729    1.7620    8.9928 H   0  0  0  0  0  0  0  0  0  0  0  0
    7.3895    1.1704    7.3117 H   0  0  0  0  0  0  0  0  0  0  0  0
    6.5380    2.7249    7.7144 H   0  0  0  0  0  0  0  0  0  0  0  0
    7.4898   -1.7186  -15.0929 H   0  0  0  0  0  0  0  0  0  0  0  0
    8.5134   -3.0026  -15.8409 H   0  0  0  0  0  0  0  0  0  0  0  0
    8.5236   -2.7965  -14.0696 H   0  0  0  0  0  0  0  0  0  0  0  0
    9.2945    3.7831    3.9449 H   0  0  0  0  0  0  0  0  0  0  0  0
    4.8525   -3.6971  -11.2924 H   0  0  0  0  0  0  0  0  0  0  0  0
    6.9764    0.4889    2.4368 H   0  0  0  0  0  0  0  0  0  0  0  0
    8.7295    0.2735    2.0247 H   0  0  0  0  0  0  0  0  0  0  0  0
    8.2090    0.2210    3.7150 H   0  0  0  0  0  0  0  0  0  0  0  0
    5.5903   -0.0458   -9.5637 H   0  0  0  0  0  0  0  0  0  0  0  0
    4.5492   -0.5659  -10.9025 H   0  0  0  0  0  0  0  0  0  0  0  0
    4.2413   -1.2098   -9.2354 H   0  0  0  0  0  0  0  0  0  0  0  0
    8.2851    4.0474    1.8022 H   0  0  0  0  0  0  0  0  0  0  0  0
    7.6688   -3.1544   -9.6812 H   0  0  0  0  0  0  0  0  0  0  0  0
    6.7847    2.5500   -0.0326 H   0  0  0  0  0  0  0  0  0  0  0  0
    7.7398   -2.2208   -7.3517 H   0  0  0  0  0  0  0  0  0  0  0  0
    9.6931    1.6312    0.1070 H   0  0  0  0  0  0  0  0  0  0  0  0
    6.2849    0.0849   -8.7094 H   0  0  0  0  0  0  0  0  0  0  0  0
    7.2108    2.6893   -2.2228 H   0  0  0  0  0  0  0  0  0  0  0  0
    8.5254   -1.0766   -6.0522 H   0  0  0  0  0  0  0  0  0  0  0  0
    9.4184   -0.7427   -0.9970 H   0  0  0  0  0  0  0  0  0  0  0  0
    8.2772   -0.9505   -2.3418 H   0  0  0  0  0  0  0  0  0  0  0  0
    9.8644   -0.1267   -2.6445 H   0  0  0  0  0  0  0  0  0  0  0  0
    6.8716    2.2663   -5.6061 H   0  0  0  0  0  0  0  0  0  0  0  0
    6.3942    2.3091   -7.2885 H   0  0  0  0  0  0  0  0  0  0  0  0
    5.3374    1.4468   -6.0935 H   0  0  0  0  0  0  0  0  0  0  0  0
    6.4998    1.5503   -4.4273 H   0  0  0  0  0  0  0  0  0  0  0  0
    9.1133    0.0767   -3.8888 H   0  0  0  0  0  0  0  0  0  0  0  0
  3  5  1  0
  4  6  1  0
  3  7  1  0
  4  8  1  0
  5  9  1  0
  6 10  1  0
  3 11  1  1
  3 12  1  0
  4 13  1  6
  4 14  1  0
  7 15  2  0
  8 16  2  0
  1 17  2  0
  9 17  1  0
 15 17  1  0
 16 18  1  0
 10 18  1  0
  2 18  2  0
  7 19  1  0
  8 20  1  0
 15 21  1  0
 16 22  1  0
 19 23  2  3
 20 24  2  3
 23 25  1  0
 24 26  1  0
 25 27  1  0
 26 28  1  0
 25 29  2  3
 26 30  2  3
 29 31  1  0
 30 32  1  0
 31 33  2  3
 32 34  2  3
 33 35  1  0
 34 36  1  0
 35 37  2  3
 36 38  2  3
 35 39  1  0
 36 40  1  0
 37 41  1  0
 41 42  2  3
 38 42  1  0
  5 43  1  0
  5 44  1  0
  6 45  1  0
  6 46  1  0
  9 47  1  0
  9 48  1  0
 10 49  1  0
 10 50  1  0
 11 51  1  0
 11 52  1  0
 11 53  1  0
 12 54  1  0
 12 55  1  0
 12 56  1  0
 13 57  1  0
 13 58  1  0
 13 59  1  0
 14 60  1  0
 14 61  1  0
 14 62  1  0
 19 63  1  0
 20 64  1  0
 21 65  1  0
 21 66  1  0
 21 67  1  0
 22 68  1  0
 22 69  1  0
 22 70  1  0
 23 71  1  0
 24 72  1  0
 27 73  1  0
 27 74  1  0
 27 75  1  0
 28 76  1  0
 28 77  1  0
 28 78  1  0
 29 79  1  0
 30 80  1  0
 31 81  1  0
 32 82  1  0
 33 83  1  0
 34 84  1  0
 37 85  1  0
 38 86  1  0
 39 87  1  0
 39 88  1  0
 39 89  1  0
 40 90  1  0
 40 91  1  0
 40 92  1  0
 41 93  1  0
 42 94  1  0
M  END
