7SED_8VD_A_401
     RDKit          3D

 30 31  0  0  0  0  0  0  0  0999 V2000
    9.0493    5.3694   -9.6477 C   0  0  0  0  0  0  0  0  0  0  0  0
    9.2795    3.1361   -5.1286 N   0  0  0  0  0  0  0  0  0  0  0  0
    7.9220    4.3446   -6.8869 C   0  0  0  0  0  0  0  0  0  0  0  0
   10.3217    3.7082   -7.3247 C   0  0  0  0  0  0  0  0  0  0  0  0
    8.7272    4.0386   -9.2021 N   0  0  0  0  0  0  0  0  0  0  0  0
    8.3195    9.0249   -8.9143 C   0  0  1  0  0  0  0  0  0  0  0  0
    8.8725    7.7763   -9.5370 C   0  0  0  0  0  0  0  0  0  0  0  0
    8.5104    6.5175   -9.0415 C   0  0  0  0  0  0  0  0  0  0  0  0
    8.8627    3.5643   -7.8172 C   0  0  2  0  0  0  0  0  0  0  0  0
   10.4234    3.7812   -5.7857 C   0  0  0  0  0  0  0  0  0  0  0  0
    8.0094    3.8221   -5.4350 C   0  0  0  0  0  0  0  0  0  0  0  0
   10.2362    6.7451  -11.1718 C   0  0  0  0  0  0  0  0  0  0  0  0
    7.8724    8.7472   -7.6354 F   0  0  0  0  0  0  0  0  0  0  0  0
    9.3075    9.9902   -8.8515 F   0  0  0  0  0  0  0  0  0  0  0  0
    7.2625    9.5147   -9.6618 F   0  0  0  0  0  0  0  0  0  0  0  0
    9.8969    5.5178  -10.7013 N   0  0  0  0  0  0  0  0  0  0  0  0
    9.7269    7.8609  -10.5915 N   0  0  0  0  0  0  0  0  0  0  0  0
    9.2220    2.1405   -5.4491 H   0  0  0  0  0  0  0  0  0  0  0  0
    8.2049    5.4205   -6.9079 H   0  0  0  0  0  0  0  0  0  0  0  0
    6.8711    4.2745   -7.2383 H   0  0  0  0  0  0  0  0  0  0  0  0
   10.9106    2.8408   -7.6952 H   0  0  0  0  0  0  0  0  0  0  0  0
   10.7885    4.6278   -7.7402 H   0  0  0  0  0  0  0  0  0  0  0  0
    8.3690    3.3779   -9.9289 H   0  0  0  0  0  0  0  0  0  0  0  0
    7.8260    6.4532   -8.2074 H   0  0  0  0  0  0  0  0  0  0  0  0
    8.6068    2.4829   -7.7775 H   0  0  0  0  0  0  0  0  0  0  0  0
   10.4801    4.8446   -5.4619 H   0  0  0  0  0  0  0  0  0  0  0  0
   11.3627    3.2894   -5.4526 H   0  0  0  0  0  0  0  0  0  0  0  0
    7.1678    3.1182   -5.2515 H   0  0  0  0  0  0  0  0  0  0  0  0
    7.8773    4.6722   -4.7316 H   0  0  0  0  0  0  0  0  0  0  0  0
   10.9133    6.8337  -12.0101 H   0  0  0  0  0  0  0  0  0  0  0  0
  1  5  1  0
  6  7  1  0
  7  8  4  0
  1  8  4  0
  5  9  1  0
  3  9  1  0
  4  9  1  0
  4 10  1  0
  2 10  1  0
  3 11  1  0
  2 11  1  0
  6 13  1  1
  6 14  1  0
  6 15  1  0
 12 16  4  0
  1 16  4  0
 12 17  4  0
  7 17  4  0
  2 18  1  0
  3 19  1  0
  3 20  1  0
  4 21  1  0
  4 22  1  0
  5 23  1  0
  8 24  1  0
  9 25  1  6
 10 26  1  0
 10 27  1  0
 11 28  1  0
 11 29  1  0
 12 30  1  0
M  END
