7WUY_76N_A_529
     RDKit          3D

 59 63  0  0  0  0  0  0  0  0999 V2000
   11.6161  153.3536   27.7678 C   0  0  2  0  0  0  0  0  0  0  0  0
   11.0382  152.0186   27.4796 C   0  0  1  0  0  0  0  0  0  0  0  0
   11.9944  150.8090   27.6847 C   0  0  1  0  0  0  0  0  0  0  0  0
   12.7500  150.8993   29.0333 C   0  0  1  0  0  0  0  0  0  0  0  0
   13.4035  152.2745   29.3139 C   0  0  1  0  0  0  0  0  0  0  0  0
   13.0686  153.3816   28.2844 C   0  0  2  0  0  0  0  0  0  0  0  0
   11.0683  148.7372   26.4423 C   0  0  0  0  0  0  0  0  0  0  0  0
   10.3639  147.5127   26.4549 C   0  0  0  0  0  0  0  0  0  0  0  0
    9.7338  147.1040   27.6421 C   0  0  0  0  0  0  0  0  0  0  0  0
   10.5399  149.0216   28.7857 C   0  0  0  0  0  0  0  0  0  0  0  0
   11.2194  149.4797   27.6393 C   0  0  0  0  0  0  0  0  0  0  0  0
   10.2962  146.6458   25.2568 C   0  0  0  0  0  0  0  0  0  0  0  0
    9.9075  141.9445   25.8597 C   0  0  1  0  0  0  0  0  0  0  0  0
    9.0590  141.9156   27.1440 C   0  0  2  0  0  0  0  0  0  0  0  0
    7.7071  142.5986   26.9370 C   0  0  1  0  0  0  0  0  0  0  0  0
    7.8616  144.0851   26.5569 C   0  0  2  0  0  0  0  0  0  0  0  0
    9.2181  144.4265   25.8714 C   0  0  1  0  0  0  0  0  0  0  0  0
    9.7282  143.2371   25.0184 C   0  0  2  0  0  0  0  0  0  0  0  0
    9.1031  145.7410   25.0157 C   0  0  2  0  0  0  0  0  0  0  0  0
    8.9496  145.4832   23.4753 C   0  0  1  0  0  0  0  0  0  0  0  0
    8.7820  143.0455   23.8555 C   0  0  0  0  0  0  0  0  0  0  0  0
    8.3697  144.1183   23.1692 C   0  0  0  0  0  0  0  0  0  0  0  0
    8.1149  146.5799   22.8014 C   0  0  2  0  0  0  0  0  0  0  0  0
    9.8254  147.8676   28.7612 N   0  0  0  0  0  0  0  0  0  0  0  0
    9.0865  146.0218   27.6824 O   0  0  0  0  0  0  0  0  0  0  0  0
   11.5851  149.2462   25.2486 O   0  0  0  0  0  0  0  0  0  0  0  0
   11.1920  146.7472   24.3745 O   0  0  0  0  0  0  0  0  0  0  0  0
   10.7172  152.7324   28.6583 O   0  0  0  0  0  0  0  0  0  0  0  0
   13.3692  154.6465   28.8151 O   0  0  0  0  0  0  0  0  0  0  0  0
   12.9572  150.8435   26.6540 O   0  0  0  0  0  0  0  0  0  0  0  0
   11.1724  154.2226   27.2381 H   0  0  0  0  0  0  0  0  0  0  0  0
   10.2119  151.9904   26.7378 H   0  0  0  0  0  0  0  0  0  0  0  0
   12.0489  150.6734   29.8669 H   0  0  0  0  0  0  0  0  0  0  0  0
   13.5337  150.1100   29.0656 H   0  0  0  0  0  0  0  0  0  0  0  0
   13.0883  152.6093   30.3269 H   0  0  0  0  0  0  0  0  0  0  0  0
   14.5083  152.1541   29.3520 H   0  0  0  0  0  0  0  0  0  0  0  0
   13.7253  153.2340   27.4005 H   0  0  0  0  0  0  0  0  0  0  0  0
   10.5666  149.5874   29.7079 H   0  0  0  0  0  0  0  0  0  0  0  0
   10.9754  141.8545   26.1571 H   0  0  0  0  0  0  0  0  0  0  0  0
    9.6814  141.0436   25.2482 H   0  0  0  0  0  0  0  0  0  0  0  0
    9.6041  142.4307   27.9657 H   0  0  0  0  0  0  0  0  0  0  0  0
    8.8988  140.8615   27.4578 H   0  0  0  0  0  0  0  0  0  0  0  0
    7.1544  142.0636   26.1333 H   0  0  0  0  0  0  0  0  0  0  0  0
    7.1037  142.5146   27.8666 H   0  0  0  0  0  0  0  0  0  0  0  0
    7.7616  144.7065   27.4733 H   0  0  0  0  0  0  0  0  0  0  0  0
    7.0123  144.3527   25.8900 H   0  0  0  0  0  0  0  0  0  0  0  0
    9.9556  144.5834   26.6921 H   0  0  0  0  0  0  0  0  0  0  0  0
   10.7229  143.5044   24.5961 H   0  0  0  0  0  0  0  0  0  0  0  0
    8.2004  146.2933   25.3617 H   0  0  0  0  0  0  0  0  0  0  0  0
    9.9576  145.4968   23.0021 H   0  0  0  0  0  0  0  0  0  0  0  0
    8.3563  142.0723   23.6294 H   0  0  0  0  0  0  0  0  0  0  0  0
    7.6282  143.9944   22.3845 H   0  0  0  0  0  0  0  0  0  0  0  0
    7.6075  147.2038   23.5662 H   0  0  0  0  0  0  0  0  0  0  0  0
    7.3459  146.1309   22.1366 H   0  0  0  0  0  0  0  0  0  0  0  0
    8.7695  147.2429   22.1961 H   0  0  0  0  0  0  0  0  0  0  0  0
    9.3424  147.5585   29.6350 H   0  0  0  0  0  0  0  0  0  0  0  0
   11.4736  148.7858   24.3558 H   0  0  0  0  0  0  0  0  0  0  0  0
   14.3286  154.8260   28.6306 H   0  0  0  0  0  0  0  0  0  0  0  0
   13.4745  151.6875   26.7463 H   0  0  0  0  0  0  0  0  0  0  0  0
  1  2  1  0
  2  3  1  0
  3  4  1  0
  4  5  1  0
  5  6  1  0
  1  6  1  0
  7  8  2  0
  8  9  1  0
 10 11  2  0
  7 11  1  0
  3 11  1  0
  8 12  1  0
 13 14  1  0
 14 15  1  0
 15 16  1  0
 17 16  1  0
 18 13  1  0
 17 18  1  0
 19 12  1  0
 17 19  1  0
 19 20  1  0
 18 21  1  0
 20 22  1  0
 21 22  2  0
 20 23  1  0
  9 24  1  0
 10 24  1  0
  9 25  2  0
  7 26  1  0
 12 27  2  0
  2 28  1  0
  1 28  1  0
  6 29  1  0
  3 30  1  6
  1 31  1  6
  2 32  1  6
  4 33  1  1
  4 34  1  0
  5 35  1  1
  5 36  1  0
  6 37  1  6
 10 38  1  0
 13 39  1  1
 13 40  1  0
 14 41  1  1
 14 42  1  0
 15 43  1  6
 15 44  1  0
 16 45  1  1
 16 46  1  0
 17 47  1  1
 18 48  1  6
 19 49  1  1
 20 50  1  6
 21 51  1  0
 22 52  1  0
 23 53  1  1
 23 54  1  0
 23 55  1  0
 24 56  1  0
 26 57  1  0
 29 58  1  0
 30 59  1  0
M  END
