7XIJ_EJ3_A_1201
     RDKit          3D

 33 36  0  0  0  0  0  0  0  0999 V2000
   -4.1521  -13.1691   13.0236 C   0  0  0  0  0  0  0  0  0  0  0  0
   -4.2708  -13.7778   11.6543 C   0  0  0  0  0  0  0  0  0  0  0  0
   -5.4069  -13.8601   11.1269 O   0  0  0  0  0  0  0  0  0  0  0  0
   -3.1117  -14.2498   10.9874 N   0  0  0  0  0  0  0  0  0  0  0  0
   -1.8669  -14.2966   11.5246 C   0  0  0  0  0  0  0  0  0  0  0  0
   -3.0685  -14.7354    9.7252 C   0  0  0  0  0  0  0  0  0  0  0  0
   -4.0448  -14.9077    8.7803 C   0  0  0  0  0  0  0  0  0  0  0  0
   -3.7311  -15.4414    7.5512 C   0  0  0  0  0  0  0  0  0  0  0  0
   -2.4304  -15.7957    7.2889 C   0  0  0  0  0  0  0  0  0  0  0  0
   -2.1860  -16.3277    6.0224 O   0  0  0  0  0  0  0  0  0  0  0  0
   -0.9074  -16.6884    5.5664 C   0  0  0  0  0  0  0  0  0  0  0  0
   -1.4209  -15.6364    8.2220 C   0  0  0  0  0  0  0  0  0  0  0  0
   -1.7524  -15.1005    9.4440 C   0  0  0  0  0  0  0  0  0  0  0  0
   -0.9930  -14.8280   10.5586 C   0  0  0  0  0  0  0  0  0  0  0  0
    0.4264  -14.9690   10.8464 C   0  0  0  0  0  0  0  0  0  0  0  0
    0.8025  -14.4652   11.9635 O   0  0  0  0  0  0  0  0  0  0  0  0
    1.3901  -15.5952   10.0535 N   0  0  0  0  0  0  0  0  0  0  0  0
    2.7848  -15.4687   10.3167 C   0  0  0  0  0  0  0  0  0  0  0  0
    3.5418  -14.8158    9.3345 C   0  0  0  0  0  0  0  0  0  0  0  0
    2.9187  -14.3109    8.2589 F   0  0  0  0  0  0  0  0  0  0  0  0
    3.4120  -15.9824   11.4284 C   0  0  0  0  0  0  0  0  0  0  0  0
    4.7775  -15.8360   11.5324 C   0  0  0  0  0  0  0  0  0  0  0  0
    5.4500  -16.3795   12.6670 C   0  0  0  0  0  0  0  0  0  0  0  0
    6.8073  -16.1691   12.9402 O   0  0  0  0  0  0  0  0  0  0  0  0
    4.8033  -17.0900   13.4717 O   0  0  0  0  0  0  0  0  0  0  0  0
    5.5444  -15.1906   10.5685 C   0  0  0  0  0  0  0  0  0  0  0  0
    4.9189  -14.6754    9.4608 C   0  0  0  0  0  0  0  0  0  0  0  0
    5.5963  -13.9366    8.4133 C   0  0  0  0  0  0  0  0  0  0  0  0
    6.6908  -13.1296    8.4030 C   0  0  0  0  0  0  0  0  0  0  0  0
    5.1226  -13.9603    7.0913 C   0  0  0  0  0  0  0  0  0  0  0  0
    5.9560  -13.1780    6.3940 N   0  0  0  0  0  0  0  0  0  0  0  0
    6.9016  -12.6756    7.1728 N   0  0  0  0  0  0  0  0  0  0  0  0
    7.9580  -11.7977    6.6523 C   0  0  0  0  0  0  0  0  0  0  0  0
  1  2  1  0
  2  3  2  0
  2  4  1  0
  4  5  1  0
  4  6  1  0
  6  7  2  0
  7  8  1  0
  8  9  2  0
  9 10  1  0
 10 11  1  0
  9 12  1  0
  6 13  1  0
 12 13  2  0
  5 14  2  0
 13 14  1  0
 14 15  1  0
 15 16  2  0
 15 17  1  0
 17 18  1  0
 18 19  2  0
 19 20  1  0
 18 21  1  0
 21 22  2  0
 22 23  1  0
 23 24  1  0
 23 25  2  0
 22 26  1  0
 26 27  2  0
 19 27  1  0
 27 28  1  0
 28 29  2  0
 28 30  1  0
 30 31  2  0
 31 32  1  0
 29 32  1  0
 32 33  1  0
M  END
$$$$
