7OLI_8HG_B_301
     RDKit          3D

 33 35  0  0  0  0  0  0  0  0999 V2000
   -1.7339   25.8219   25.6293 O   0  0  0  0  0  0  0  0  0  0  0  0
   -1.5919   24.6703   26.1202 C   0  0  0  0  0  0  0  0  0  0  0  0
   -2.5706   23.7236   25.9860 N   0  0  0  0  0  0  0  0  0  0  0  0
   -2.4162   22.4604   26.5113 C   0  0  0  0  0  0  0  0  0  0  0  0
   -3.4486   21.4874   26.3534 N   0  0  0  0  0  0  0  0  0  0  0  0
   -1.2724   22.1267   27.1855 N   0  0  0  0  0  0  0  0  0  0  0  0
   -0.3112   23.0711   27.3234 C   0  0  0  0  0  0  0  0  0  0  0  0
   -0.4412   24.3192   26.8102 C   0  0  0  0  0  0  0  0  0  0  0  0
    0.6706   25.0331   27.0586 N   0  0  0  0  0  0  0  0  0  0  0  0
    1.4611   24.1600   27.7328 C   0  0  0  0  0  0  0  0  0  0  0  0
    2.6243   24.4486   28.1210 O   0  0  0  0  0  0  0  0  0  0  0  0
    0.8823   22.9438   27.9284 N   0  0  0  0  0  0  0  0  0  0  0  0
    1.4568   21.7355   28.5264 C   0  0  2  0  0  0  0  0  0  0  0  0
    2.1367   22.0518   29.7169 O   0  0  0  0  0  0  0  0  0  0  0  0
    2.4444   21.0777   27.5790 C   0  0  1  0  0  0  0  0  0  0  0  0
    3.4493   20.4433   28.5154 C   0  0  2  0  0  0  0  0  0  0  0  0
    3.3377   19.0398   28.5282 O   0  0  0  0  0  0  0  0  0  0  0  0
    3.1148   21.0508   29.8903 C   0  0  1  0  0  0  0  0  0  0  0  0
    4.3491   21.6391   30.5882 C   0  0  2  0  0  0  0  0  0  0  0  0
    4.8468   22.7470   29.8853 O   0  0  0  0  0  0  0  0  0  0  0  0
   -3.4479   23.9648   25.4714 H   0  0  0  0  0  0  0  0  0  0  0  0
   -3.3386   20.5320   26.7599 H   0  0  0  0  0  0  0  0  0  0  0  0
   -4.3231   21.7174   25.8314 H   0  0  0  0  0  0  0  0  0  0  0  0
    0.8856   26.0159   26.7783 H   0  0  0  0  0  0  0  0  0  0  0  0
    0.6398   21.0171   28.7684 H   0  0  0  0  0  0  0  0  0  0  0  0
    1.9408   20.3374   26.9192 H   0  0  0  0  0  0  0  0  0  0  0  0
    2.9524   21.8412   26.9485 H   0  0  0  0  0  0  0  0  0  0  0  0
    4.4778   20.7076   28.1830 H   0  0  0  0  0  0  0  0  0  0  0  0
    2.3883   18.8044   28.3527 H   0  0  0  0  0  0  0  0  0  0  0  0
    2.6926   20.2697   30.5624 H   0  0  0  0  0  0  0  0  0  0  0  0
    5.1436   20.8645   30.6438 H   0  0  0  0  0  0  0  0  0  0  0  0
    4.0898   21.9236   31.6341 H   0  0  0  0  0  0  0  0  0  0  0  0
    4.1131   23.0658   29.2977 H   0  0  0  0  0  0  0  0  0  0  0  0
  1  2  2  0
  2  3  1  0
  3  4  1  0
  4  5  1  0
  4  6  2  0
  6  7  1  0
  2  8  1  0
  7  8  2  0
  8  9  1  0
  9 10  1  0
 10 11  2  0
  7 12  1  0
 10 12  1  0
 13 12  1  0
 13 14  1  0
 13 15  1  0
 15 16  1  0
 16 17  1  0
 14 18  1  0
 16 18  1  0
 18 19  1  0
 19 20  1  0
  3 21  1  0
  5 22  1  0
  5 23  1  0
  9 24  1  0
 13 25  1  1
 15 26  1  6
 15 27  1  0
 16 28  1  6
 17 29  1  0
 18 30  1  1
 19 31  1  1
 19 32  1  0
 20 33  1  0
M  END
