
     RDKit          3D

  9  8  0  0  0  0  0  0  0  0999 V2000
   -5.8514    4.7600   -7.2615 O   0  0  0  0  0  0  0  0  0  0  0  0
   -5.1816    4.7316   -5.8113 P   0  0  0  0  0  5  0  0  0  0  0  0
   -4.0214    3.7973   -5.7054 O   0  0  0  0  0  0  0  0  0  0  0  0
   -6.4510    4.3248   -4.9239 O   0  0  0  0  0  0  0  0  0  0  0  0
   -4.7971    6.4146   -5.3961 C   0  0  0  0  0  0  0  0  0  0  0  0
   -3.1498    6.9102   -5.8514 P   0  0  1  0  0  5  0  0  0  0  0  0
   -2.1484    7.1117   -4.7672 O   0  0  0  0  0  0  0  0  0  0  0  0
   -2.6680    5.8257   -6.9318 O   0  0  0  0  0  0  0  0  0  0  0  0
   -3.3214    8.1865   -6.8059 O   0  0  0  0  0  0  0  0  0  0  0  0
  1  2  1  0
  2  3  2  0
  2  4  1  0
  2  5  1  0
  5  6  1  0
  6  7  2  0
  6  8  1  0
  6  9  1  0
M  END
