5SD5_HWI_A_202
     RDKit          3D

 29 31  0  0  0  0  0  0  0  0999 V2000
   24.5658   -3.5057    7.1873 C   0  0  0  0  0  0  0  0  0  0  0  0
   25.1222   -2.8452   10.7263 C   0  0  0  0  0  0  0  0  0  0  0  0
   27.0673    0.0213   13.3681 C   0  0  0  0  0  0  0  0  0  0  0  0
   27.3453    0.6416   15.6845 C   0  0  0  0  0  0  0  0  0  0  0  0
   26.4436   -0.3505   16.0085 C   0  0  0  0  0  0  0  0  0  0  0  0
   25.8461   -1.1593   15.0591 C   0  0  0  0  0  0  0  0  0  0  0  0
   24.0794   -3.1845   14.9034 C   0  0  0  0  0  0  0  0  0  0  0  0
   24.9028   -2.4130    9.2934 C   0  0  0  0  0  0  0  0  0  0  0  0
   25.9337   -1.7531   11.4049 C   0  0  0  0  0  0  0  0  0  0  0  0
   26.1581   -0.9747   13.7269 C   0  0  0  0  0  0  0  0  0  0  0  0
   27.6474    0.8126   14.3364 C   0  0  0  0  0  0  0  0  0  0  0  0
   28.6122    1.8681   13.9409 C   0  0  0  0  0  0  0  0  0  0  0  0
   26.6789   -1.1845    5.1729 C   0  0  0  0  0  0  0  0  0  0  0  0
   26.4457   -2.0261    6.4363 C   0  0  0  0  0  0  0  0  0  0  0  0
   25.1993   -2.7974    6.1936 C   0  0  0  0  0  0  0  0  0  0  0  0
   23.5807   -3.4274    4.5964 C   0  0  0  0  0  0  0  0  0  0  0  0
   23.4118   -4.1788    6.8353 C   0  0  0  0  0  0  0  0  0  0  0  0
   24.3623   -3.9964   16.1726 C   0  0  1  0  0  0  0  0  0  0  0  0
   24.4006   -2.6139   16.8044 C   0  0  0  0  0  0  0  0  0  0  0  0
   23.2533   -4.8657   16.5945 C   0  0  0  0  0  0  0  0  0  0  0  0
   24.7047   -2.7709    4.9371 N   0  0  0  0  0  0  0  0  0  0  0  0
   23.1227   -3.3524    3.2581 N   0  0  0  0  0  0  0  0  0  0  0  0
   22.9571   -4.1212    5.5640 N   0  0  0  0  0  0  0  0  0  0  0  0
   22.6877   -4.9378    7.7964 N   0  0  0  0  0  0  0  0  0  0  0  0
   24.9305   -2.1513   15.5121 N   0  0  0  0  0  0  0  0  0  0  0  0
   25.0495   -3.5461    8.4639 O   0  0  0  0  0  0  0  0  0  0  0  0
   25.5636   -1.7804   12.7713 O   0  0  0  0  0  0  0  0  0  0  0  0
   23.0177   -4.9384   17.8389 O   0  0  0  0  0  0  0  0  0  0  0  0
   22.5036   -5.5703   15.6732 O   0  0  0  0  0  0  0  0  0  0  0  0
  4  5  1  0
  5  6  2  0
  2  8  1  0
  2  9  1  0
  3 10  2  0
  6 10  1  0
  3 11  1  0
  4 11  2  0
 11 12  1  0
 13 14  1  0
 14 15  1  0
  1 15  2  0
  1 17  1  0
  7 18  1  0
 18 19  1  0
 18 20  1  1
 15 21  1  0
 16 21  2  0
 16 22  1  0
 16 23  1  0
 17 23  2  0
 17 24  1  0
  6 25  1  0
  7 25  1  0
 19 25  1  0
  1 26  1  0
  8 26  1  0
  9 27  1  0
 10 27  1  0
 20 28  2  0
 20 29  1  0
M  END
$$$$
