
     RDKit          3D

 18 19  0  0  0  0  0  0  0  0999 V2000
   13.4380   11.8430   14.0424 O   0  0  0  0  0  0  0  0  0  0  0  0
   13.2495   12.3241   11.6445 O   0  0  0  0  0  0  0  0  0  0  0  0
   13.0989   11.3444   12.7090 S   0  0  0  0  0  6  0  0  0  0  0  0
   11.9005   10.5210   12.6623 O   0  0  0  0  0  1  0  0  0  0  0  0
   17.5088    7.7394   11.1190 C   0  0  1  0  0  0  0  0  0  0  0  0
   17.7890    7.7761    9.6224 C   0  0  1  0  0  0  0  0  0  0  0  0
   17.7427    9.1855    9.0739 C   0  0  2  0  0  0  0  0  0  0  0  0
   16.4348    9.8926    9.4463 C   0  0  1  0  0  0  0  0  0  0  0  0
   16.0434    9.5818   10.9181 C   0  0  2  0  0  0  0  0  0  0  0  0
   15.4535   10.7400   11.7286 C   0  0  0  0  0  0  0  0  0  0  0  0
   19.6260    7.0654   10.7537 C   0  0  0  0  0  0  0  0  0  0  0  0
   21.0098    6.6539   11.0306 C   0  0  0  0  0  0  0  0  0  0  0  0
   19.1783    7.3219    9.5942 N   0  0  0  0  0  4  0  0  0  0  0  0
   18.7256    7.2521   11.7176 O   0  0  0  0  0  0  0  0  0  0  0  0
   17.9259    9.1376    7.6532 O   0  0  0  0  0  0  0  0  0  0  0  0
   16.7003   11.2676    9.1713 O   0  0  0  0  0  0  0  0  0  0  0  0
   17.1923    9.0349   11.6191 O   0  0  0  0  0  0  0  0  0  0  0  0
   14.2969   10.2858   12.4092 O   0  0  0  0  0  0  0  0  0  0  0  0
  2  3  2  0
  1  3  2  0
  3  4  1  0
  5  6  1  0
  6  7  1  0
  7  8  1  0
  8  9  1  0
  9 10  1  1
 11 12  1  0
  6 13  1  1
 11 13  2  0
 11 14  1  0
  5 14  1  1
  7 15  1  6
  8 16  1  1
  9 17  1  0
  5 17  1  0
 10 18  1  0
  3 18  1  0
M  CHG  2   4  -1  13   1
M  END
