1YV3_BIT_A_800
     RDKit          3D

 22 25  0  0  0  0  0  0  0  0999 V2000
   25.8694   49.7161   54.5934 O   0  0  0  0  0  0  0  0  0  0  0  0
   25.8307   50.9002   54.9483 C   0  0  0  0  0  0  0  0  0  0  0  0
   27.0925   51.6502   55.1231 C   0  0  0  0  0  0  0  0  0  0  0  0
   28.3178   51.0578   54.9477 C   0  0  0  0  0  0  0  0  0  0  0  0
   29.4842   51.7843   55.1147 C   0  0  0  0  0  0  0  0  0  0  0  0
   30.8281   51.1723   54.9321 C   0  0  0  0  0  0  0  0  0  0  0  0
   29.4366   53.1124   55.4593 C   0  0  0  0  0  0  0  0  0  0  0  0
   27.0682   53.0048   55.4744 C   0  0  0  0  0  0  0  0  0  0  0  0
   28.2321   53.7292   55.6408 C   0  0  0  0  0  0  0  0  0  0  0  0
   24.5760   51.5674   55.1960 C   0  0  2  0  0  0  0  0  0  0  0  0
   24.6917   53.0267   55.5418 C   0  0  0  0  0  0  0  0  0  0  0  0
   25.8100   53.6363   55.6642 N   0  0  0  0  0  0  0  0  0  0  0  0
   23.8606   50.9822   56.2673 O   0  0  0  0  0  0  0  0  0  0  0  0
   23.6036   51.6926   54.0518 C   0  0  0  0  0  0  0  0  0  0  0  0
   22.5192   52.5301   54.7524 C   0  0  0  0  0  0  0  0  0  0  0  0
   23.2983   53.4214   55.6096 N   0  0  0  0  0  0  0  0  0  0  0  0
   22.7999   54.5087   56.3887 C   0  0  0  0  0  0  0  0  0  0  0  0
   23.5565   55.0870   57.3697 C   0  0  0  0  0  0  0  0  0  0  0  0
   23.0946   56.1452   58.1408 C   0  0  0  0  0  0  0  0  0  0  0  0
   21.8200   56.6184   57.8931 C   0  0  0  0  0  0  0  0  0  0  0  0
   21.0633   56.0253   56.8976 C   0  0  0  0  0  0  0  0  0  0  0  0
   21.5378   54.9754   56.1416 C   0  0  0  0  0  0  0  0  0  0  0  0
  1  2  2  0
  2  3  1  0
  3  4  1  0
  4  5  2  0
  5  6  1  0
  5  7  1  0
  3  8  2  0
  7  9  2  0
  8  9  1  0
  2 10  1  0
 10 11  1  0
  8 12  1  0
 11 12  2  0
 10 13  1  1
 10 14  1  0
 14 15  1  0
 11 16  1  0
 15 16  1  0
 16 17  1  0
 17 18  2  0
 18 19  1  0
 19 20  2  0
 20 21  1  0
 17 22  1  0
 21 22  2  0
M  END
$$$$
