1YV3_BIT_A_800
     RDKit          3D

 22 25  0  0  0  0  0  0  0  0999 V2000
   20.9023   40.7253   60.3136 O   0  0  0  0  0  0  0  0  0  0  0  0
   21.3455   41.8026   60.7287 C   0  0  0  0  0  0  0  0  0  0  0  0
   22.4476   41.8062   61.7141 C   0  0  0  0  0  0  0  0  0  0  0  0
   22.9687   40.6430   62.2224 C   0  0  0  0  0  0  0  0  0  0  0  0
   24.0031   40.6747   63.1418 C   0  0  0  0  0  0  0  0  0  0  0  0
   24.5904   39.4322   63.7122 C   0  0  0  0  0  0  0  0  0  0  0  0
   24.5272   41.8719   63.5625 C   0  0  0  0  0  0  0  0  0  0  0  0
   22.9972   43.0146   62.1573 C   0  0  0  0  0  0  0  0  0  0  0  0
   24.0292   43.0458   63.0745 C   0  0  0  0  0  0  0  0  0  0  0  0
   20.8082   43.0603   60.2704 C   0  0  2  0  0  0  0  0  0  0  0  0
   21.5059   44.2805   60.8059 C   0  0  0  0  0  0  0  0  0  0  0  0
   22.4697   44.2304   61.6460 N   0  0  0  0  0  0  0  0  0  0  0  0
   19.4468   43.2208   60.6210 O   0  0  0  0  0  0  0  0  0  0  0  0
   20.9107   43.3799   58.8014 C   0  0  0  0  0  0  0  0  0  0  0  0
   20.3235   44.8021   58.8262 C   0  0  0  0  0  0  0  0  0  0  0  0
   20.8297   45.3422   60.0865 N   0  0  0  0  0  0  0  0  0  0  0  0
   20.7006   46.6848   60.5536 C   0  0  0  0  0  0  0  0  0  0  0  0
   20.6289   47.7372   59.6838 C   0  0  0  0  0  0  0  0  0  0  0  0
   20.5032   49.0516   60.1131 C   0  0  0  0  0  0  0  0  0  0  0  0
   20.4502   49.2857   61.4741 C   0  0  0  0  0  0  0  0  0  0  0  0
   20.5238   48.2126   62.3450 C   0  0  0  0  0  0  0  0  0  0  0  0
   20.6484   46.9139   61.9014 C   0  0  0  0  0  0  0  0  0  0  0  0
  1  2  2  0
  2  3  1  0
  3  4  1  0
  4  5  2  0
  5  6  1  0
  5  7  1  0
  3  8  2  0
  7  9  2  0
  8  9  1  0
  2 10  1  0
 10 11  1  0
  8 12  1  0
 11 12  2  0
 10 13  1  1
 10 14  1  0
 14 15  1  0
 11 16  1  0
 15 16  1  0
 16 17  1  0
 17 18  2  0
 18 19  1  0
 19 20  2  0
 20 21  1  0
 17 22  1  0
 21 22  2  0
M  END
$$$$
