1YV3_BIT_A_800
     RDKit          3D

 22 25  0  0  0  0  0  0  0  0999 V2000
   20.0881   46.7480   62.4532 O   0  0  0  0  0  0  0  0  0  0  0  0
   19.5263   46.2106   61.4915 C   0  0  0  0  0  0  0  0  0  0  0  0
   18.1524   46.6187   61.1290 C   0  0  0  0  0  0  0  0  0  0  0  0
   17.4567   47.5495   61.8587 C   0  0  0  0  0  0  0  0  0  0  0  0
   16.1722   47.9159   61.4952 C   0  0  0  0  0  0  0  0  0  0  0  0
   15.3909   48.9217   62.2647 C   0  0  0  0  0  0  0  0  0  0  0  0
   15.5701   47.3542   60.3967 C   0  0  0  0  0  0  0  0  0  0  0  0
   17.5188   46.0593   60.0134 C   0  0  0  0  0  0  0  0  0  0  0  0
   16.2374   46.4252   59.6511 C   0  0  0  0  0  0  0  0  0  0  0  0
   20.1852   45.1904   60.7132 C   0  0  2  0  0  0  0  0  0  0  0  0
   19.4029   44.6924   59.5290 C   0  0  0  0  0  0  0  0  0  0  0  0
   18.2204   45.0911   59.2464 N   0  0  0  0  0  0  0  0  0  0  0  0
   20.4809   44.0389   61.4803 O   0  0  0  0  0  0  0  0  0  0  0  0
   21.4558   45.5607   59.9928 C   0  0  0  0  0  0  0  0  0  0  0  0
   21.7059   44.2336   59.2550 C   0  0  0  0  0  0  0  0  0  0  0  0
   20.3560   43.7944   58.9068 N   0  0  0  0  0  0  0  0  0  0  0  0
   20.0051   42.6780   58.0895 C   0  0  0  0  0  0  0  0  0  0  0  0
   20.6803   42.4025   56.9329 C   0  0  0  0  0  0  0  0  0  0  0  0
   20.3583   41.3232   56.1210 C   0  0  0  0  0  0  0  0  0  0  0  0
   19.3135   40.5078   56.5127 C   0  0  0  0  0  0  0  0  0  0  0  0
   18.6374   40.7964   57.6853 C   0  0  0  0  0  0  0  0  0  0  0  0
   18.9705   41.8723   58.4793 C   0  0  0  0  0  0  0  0  0  0  0  0
  1  2  2  0
  2  3  1  0
  3  4  1  0
  4  5  2  0
  5  6  1  0
  5  7  1  0
  3  8  2  0
  7  9  2  0
  8  9  1  0
  2 10  1  0
 10 11  1  0
  8 12  1  0
 11 12  2  0
 10 13  1  1
 10 14  1  0
 14 15  1  0
 11 16  1  0
 15 16  1  0
 16 17  1  0
 17 18  2  0
 18 19  1  0
 19 20  2  0
 20 21  1  0
 17 22  1  0
 21 22  2  0
M  END
$$$$
