1YV3_BIT_A_800
     RDKit          3D

 22 25  0  0  0  0  0  0  0  0999 V2000
   14.8536   50.6058   60.2007 O   0  0  0  0  0  0  0  0  0  0  0  0
   14.5291   49.7306   59.3896 C   0  0  0  0  0  0  0  0  0  0  0  0
   13.1389   49.2279   59.3771 C   0  0  0  0  0  0  0  0  0  0  0  0
   12.2001   49.6713   60.2744 C   0  0  0  0  0  0  0  0  0  0  0  0
   10.9041   49.1861   60.2385 C   0  0  0  0  0  0  0  0  0  0  0  0
    9.8625   49.6458   61.1966 C   0  0  0  0  0  0  0  0  0  0  0  0
   10.5338   48.2513   59.3037 C   0  0  0  0  0  0  0  0  0  0  0  0
   12.7390   48.2748   58.4334 C   0  0  0  0  0  0  0  0  0  0  0  0
   11.4460   47.7912   58.3980 C   0  0  0  0  0  0  0  0  0  0  0  0
   15.4814   49.1878   58.4520 C   0  0  2  0  0  0  0  0  0  0  0  0
   14.9149   48.1907   57.4787 C   0  0  0  0  0  0  0  0  0  0  0  0
   13.6966   47.8000   57.4977 N   0  0  0  0  0  0  0  0  0  0  0  0
   16.5478   48.5191   59.0982 O   0  0  0  0  0  0  0  0  0  0  0  0
   16.1090   50.1290   57.4566 C   0  0  0  0  0  0  0  0  0  0  0  0
   16.9298   49.1079   56.6492 C   0  0  0  0  0  0  0  0  0  0  0  0
   16.0583   47.9349   56.6249 N   0  0  0  0  0  0  0  0  0  0  0  0
   16.2685   46.7296   55.8895 C   0  0  0  0  0  0  0  0  0  0  0  0
   17.3518   46.5759   55.0695 C   0  0  0  0  0  0  0  0  0  0  0  0
   17.5784   45.4140   54.3441 C   0  0  0  0  0  0  0  0  0  0  0  0
   16.6642   44.3850   54.4680 C   0  0  0  0  0  0  0  0  0  0  0  0
   15.5716   44.5519   55.3009 C   0  0  0  0  0  0  0  0  0  0  0  0
   15.3622   45.7124   56.0138 C   0  0  0  0  0  0  0  0  0  0  0  0
  1  2  2  0
  2  3  1  0
  3  4  1  0
  4  5  2  0
  5  6  1  0
  5  7  1  0
  3  8  2  0
  7  9  2  0
  8  9  1  0
  2 10  1  0
 10 11  1  0
  8 12  1  0
 11 12  2  0
 10 13  1  1
 10 14  1  0
 14 15  1  0
 11 16  1  0
 15 16  1  0
 16 17  1  0
 17 18  2  0
 18 19  1  0
 19 20  2  0
 20 21  1  0
 17 22  1  0
 21 22  2  0
M  END
$$$$
