1YV3_BIT_A_800
     RDKit          3D

 22 25  0  0  0  0  0  0  0  0999 V2000
   24.4241   20.0567   32.5306 O   0  0  0  0  0  0  0  0  0  0  0  0
   25.0639   21.0864   32.7749 C   0  0  0  0  0  0  0  0  0  0  0  0
   25.7621   21.2203   34.0711 C   0  0  0  0  0  0  0  0  0  0  0  0
   25.6851   20.2507   35.0391 C   0  0  0  0  0  0  0  0  0  0  0  0
   26.3515   20.4000   36.2432 C   0  0  0  0  0  0  0  0  0  0  0  0
   26.2888   19.3679   37.3132 C   0  0  0  0  0  0  0  0  0  0  0  0
   27.1026   21.5221   36.4913 C   0  0  0  0  0  0  0  0  0  0  0  0
   26.5332   22.3555   34.3460 C   0  0  0  0  0  0  0  0  0  0  0  0
   27.1979   22.5039   35.5473 C   0  0  0  0  0  0  0  0  0  0  0  0
   25.1438   22.1634   31.8188 C   0  0  2  0  0  0  0  0  0  0  0  0
   26.0242   23.3116   32.2295 C   0  0  0  0  0  0  0  0  0  0  0  0
   26.6231   23.3727   33.3586 N   0  0  0  0  0  0  0  0  0  0  0  0
   23.8782   22.7366   31.5506 O   0  0  0  0  0  0  0  0  0  0  0  0
   25.7738   21.8758   30.4805 C   0  0  0  0  0  0  0  0  0  0  0  0
   25.7233   23.2937   29.8846 C   0  0  0  0  0  0  0  0  0  0  0  0
   25.9899   24.1441   31.0430 N   0  0  0  0  0  0  0  0  0  0  0  0
   26.1927   25.5571   31.0369 C   0  0  0  0  0  0  0  0  0  0  0  0
   26.1493   26.2873   32.1920 C   0  0  0  0  0  0  0  0  0  0  0  0
   26.3432   27.6620   32.2125 C   0  0  0  0  0  0  0  0  0  0  0  0
   26.5880   28.2989   31.0106 C   0  0  0  0  0  0  0  0  0  0  0  0
   26.6296   27.5495   29.8479 C   0  0  0  0  0  0  0  0  0  0  0  0
   26.4348   26.1853   29.8461 C   0  0  0  0  0  0  0  0  0  0  0  0
  1  2  2  0
  2  3  1  0
  3  4  1  0
  4  5  2  0
  5  6  1  0
  5  7  1  0
  3  8  2  0
  7  9  2  0
  8  9  1  0
  2 10  1  0
 10 11  1  0
  8 12  1  0
 11 12  2  0
 10 13  1  6
 10 14  1  0
 14 15  1  0
 11 16  1  0
 15 16  1  0
 16 17  1  0
 17 18  2  0
 18 19  1  0
 19 20  2  0
 20 21  1  0
 17 22  1  0
 21 22  2  0
M  END
$$$$
