1YV3_BIT_A_800
     RDKit          3D

 22 25  0  0  0  0  0  0  0  0999 V2000
   25.1374    4.4385   61.4725 O   0  0  0  0  0  0  0  0  0  0  0  0
   24.6894    5.4771   60.9723 C   0  0  0  0  0  0  0  0  0  0  0  0
   25.4098    6.7523   61.1731 C   0  0  0  0  0  0  0  0  0  0  0  0
   26.5442    6.8304   61.9413 C   0  0  0  0  0  0  0  0  0  0  0  0
   27.2012    8.0371   62.1103 C   0  0  0  0  0  0  0  0  0  0  0  0
   28.4331    8.1560   62.9364 C   0  0  0  0  0  0  0  0  0  0  0  0
   26.7295    9.1791   61.5118 C   0  0  0  0  0  0  0  0  0  0  0  0
   24.9471    7.9290   60.5730 C   0  0  0  0  0  0  0  0  0  0  0  0
   25.6030    9.1325   60.7417 C   0  0  0  0  0  0  0  0  0  0  0  0
   23.4747    5.4706   60.1945 C   0  0  2  0  0  0  0  0  0  0  0  0
   23.1042    6.7957   59.5868 C   0  0  0  0  0  0  0  0  0  0  0  0
   23.7723    7.8704   59.7765 N   0  0  0  0  0  0  0  0  0  0  0  0
   22.3506    5.0799   60.9598 O   0  0  0  0  0  0  0  0  0  0  0  0
   23.4443    4.6402   58.9374 C   0  0  0  0  0  0  0  0  0  0  0  0
   22.0434    5.0269   58.4313 C   0  0  0  0  0  0  0  0  0  0  0  0
   21.9432    6.4389   58.7952 N   0  0  0  0  0  0  0  0  0  0  0  0
   20.8947    7.3402   58.4403 C   0  0  0  0  0  0  0  0  0  0  0  0
   20.0738    7.0931   57.3753 C   0  0  0  0  0  0  0  0  0  0  0  0
   19.0474    7.9537   57.0100 C   0  0  0  0  0  0  0  0  0  0  0  0
   18.8636    9.0980   57.7628 C   0  0  0  0  0  0  0  0  0  0  0  0
   19.7007    9.3377   58.8386 C   0  0  0  0  0  0  0  0  0  0  0  0
   20.7148    8.4722   59.1870 C   0  0  0  0  0  0  0  0  0  0  0  0
  1  2  2  0
  2  3  1  0
  3  4  1  0
  4  5  2  0
  5  6  1  0
  5  7  1  0
  3  8  2  0
  7  9  2  0
  8  9  1  0
  2 10  1  0
 10 11  1  0
  8 12  1  0
 11 12  2  0
 10 13  1  1
 10 14  1  0
 14 15  1  0
 11 16  1  0
 15 16  1  0
 16 17  1  0
 17 18  2  0
 18 19  1  0
 19 20  2  0
 20 21  1  0
 17 22  1  0
 21 22  2  0
M  END
$$$$
