7ED2_A3P_B_301
     RDKit          3D

 42 44  0  0  0  0  0  0  0  0999 V2000
  -19.7394  -18.6891   10.1160 P   0  0  2  0  0  5  0  0  0  0  0  0
  -18.9931  -17.6716   11.0139 O   0  0  0  0  0  0  0  0  0  0  0  0
  -18.8111  -19.4721    9.1544 O   0  0  0  0  0  0  0  0  0  0  0  0
  -20.9184  -18.1483    9.4030 O   0  0  0  0  0  0  0  0  0  0  0  0
  -22.2624  -16.6888   13.3204 P   0  0  1  0  0  5  0  0  0  0  0  0
  -22.0667  -18.2380   13.4337 O   0  0  0  0  0  0  0  0  0  0  0  0
  -23.5102  -16.2137   13.9805 O   0  0  0  0  0  0  0  0  0  0  0  0
  -21.0470  -15.9477   13.7523 O   0  0  0  0  0  0  0  0  0  0  0  0
  -22.3700  -16.3410   11.7629 O   0  0  0  0  0  0  0  0  0  0  0  0
  -21.8683  -17.3546   10.8417 C   0  0  0  0  0  0  0  0  0  0  0  0
  -22.2836  -18.7111   11.3328 C   0  0  2  0  0  0  0  0  0  0  0  0
  -23.3844  -18.6082   12.2549 O   0  0  0  0  0  0  0  0  0  0  0  0
  -21.2144  -19.4238   12.1479 C   0  0  2  0  0  0  0  0  0  0  0  0
  -20.3197  -19.8145   11.1528 O   0  0  0  0  0  0  0  0  0  0  0  0
  -22.0459  -20.4537   12.8910 C   0  0  2  0  0  0  0  0  0  0  0  0
  -22.1428  -21.6754   12.2039 O   0  0  0  0  0  0  0  0  0  0  0  0
  -23.4100  -19.7706   13.0352 C   0  0  1  0  0  0  0  0  0  0  0  0
  -23.6696  -19.3771   14.3997 N   0  0  0  0  0  4  0  0  0  0  0  0
  -24.8010  -19.7067   15.1880 C   0  0  0  0  0  0  0  0  0  0  0  0
  -24.7845  -19.0966   16.3596 N   0  0  0  0  0  0  0  0  0  0  0  0
  -23.5944  -18.3695   16.3532 C   0  0  0  0  0  0  0  0  0  0  0  0
  -23.0157  -17.5218   17.3129 C   0  0  0  0  0  0  0  0  0  0  0  0
  -23.5967  -17.2428   18.4769 N   0  0  0  0  0  0  0  0  0  0  0  0
  -21.8492  -16.9138   16.9934 N   0  0  0  0  0  0  0  0  0  0  0  0
  -21.2969  -17.1926   15.8014 C   0  0  0  0  0  0  0  0  0  0  0  0
  -21.7521  -17.9637   14.8116 N   0  0  0  0  0  0  0  0  0  0  0  0
  -22.9052  -18.5394   15.1643 C   0  0  0  0  0  0  0  0  0  0  0  0
  -18.4285  -18.8610    8.5060 H   0  0  0  0  0  0  0  0  0  0  0  0
  -20.6311  -17.4716    8.7705 H   0  0  0  0  0  0  0  0  0  0  0  0
  -23.4705  -16.4131   14.9290 H   0  0  0  0  0  0  0  0  0  0  0  0
  -20.8959  -16.0985   14.6986 H   0  0  0  0  0  0  0  0  0  0  0  0
  -22.2753  -17.1858    9.8664 H   0  0  0  0  0  0  0  0  0  0  0  0
  -20.8012  -17.3000   10.7915 H   0  0  0  0  0  0  0  0  0  0  0  0
  -22.5106  -19.2474   10.4351 H   0  0  0  0  0  0  0  0  0  0  0  0
  -20.6172  -18.9423   12.8936 H   0  0  0  0  0  0  0  0  0  0  0  0
  -21.6096  -20.7236   13.8296 H   0  0  0  0  0  0  0  0  0  0  0  0
  -22.5336  -21.5242   11.3294 H   0  0  0  0  0  0  0  0  0  0  0  0
  -24.1712  -20.4572   12.7283 H   0  0  0  0  0  0  0  0  0  0  0  0
  -25.5497  -20.3481   14.8824 H   0  0  0  0  0  0  0  0  0  0  0  0
  -24.4453  -17.6785   18.7205 H   0  0  0  0  0  0  0  0  0  0  0  0
  -23.1779  -16.6007   19.0947 H   0  0  0  0  0  0  0  0  0  0  0  0
  -20.3846  -16.7437   15.6244 H   0  0  0  0  0  0  0  0  0  0  0  0
  1  2  2  0
  1  3  1  1
  1  4  1  0
  5  6  2  0
  5  7  1  6
  5  8  1  0
  5  9  1  0
  9 10  1  0
 11 10  1  0
 11 12  1  0
 11 13  1  0
  1 14  1  0
 13 14  1  0
 13 15  1  0
 15 16  1  0
 12 17  1  0
 15 17  1  0
 17 18  1  0
 18 19  4  0
 19 20  4  0
 20 21  4  0
 21 22  4  0
 22 23  1  0
 22 24  4  0
 24 25  4  0
 25 26  4  0
 18 27  4  0
 21 27  4  0
 26 27  4  0
  3 28  1  0
  4 29  1  0
  7 30  1  0
  8 31  1  0
 10 32  1  0
 10 33  1  0
 11 34  1  1
 13 35  1  6
 15 36  1  6
 16 37  1  0
 17 38  1  1
 19 39  1  0
 23 40  1  0
 23 41  1  0
 25 42  1  0
M  CHG  1  18   1
M  END
