
     RDKit          3D

 29 30  0  0  0  0  0  0  0  0999 V2000
  -24.9975  -60.2905   -8.7694 P   0  0  2  0  0  5  0  0  0  0  0  0
  -24.2904  -60.9693   -9.8896 O   0  0  0  0  0  0  0  0  0  0  0  0
  -24.7720  -61.0515   -7.3788 O   0  0  0  0  0  0  0  0  0  0  0  0
  -26.5748  -60.1951   -8.9115 O   0  0  0  0  0  0  0  0  0  0  0  0
  -24.4822  -58.8020   -8.4716 O   0  0  0  0  0  0  0  0  0  0  0  0
  -27.3823  -61.1054   -9.9334 P   0  0  2  0  0  5  0  0  0  0  0  0
  -26.8377  -60.5921  -11.3499 O   0  0  0  0  0  0  0  0  0  0  0  0
  -28.8725  -61.0371   -9.8559 O   0  0  0  0  0  0  0  0  0  0  0  0
  -26.7797  -62.5723   -9.8192 O   0  0  0  0  0  0  0  0  0  0  0  0
  -27.4434  -63.6266   -8.8359 P   0  0  0  0  0  5  0  0  0  0  0  0
  -27.9025  -62.7359   -7.5791 O   0  0  0  0  0  0  0  0  0  0  0  0
  -26.6401  -64.8100   -8.4366 O   0  0  0  0  0  0  0  0  0  0  0  0
  -28.8516  -63.9612   -9.5008 O   0  0  0  0  0  0  0  0  0  0  0  0
  -24.4780  -58.3166   -7.1347 C   0  0  0  0  0  0  0  0  0  0  0  0
  -25.8889  -57.8943   -6.7111 C   0  0  1  0  0  0  0  0  0  0  0  0
  -25.7874  -57.0138   -5.5609 O   0  0  0  0  0  0  0  0  0  0  0  0
  -26.4602  -55.7765   -5.8925 C   0  0  2  0  0  0  0  0  0  0  0  0
  -26.4063  -55.6742   -7.4246 C   0  0  2  0  0  0  0  0  0  0  0  0
  -27.3975  -54.8375   -8.0171 O   0  0  0  0  0  0  0  0  0  0  0  0
  -26.6364  -57.1277   -7.8030 C   0  0  2  0  0  0  0  0  0  0  0  0
  -28.0411  -57.4246   -7.7328 O   0  0  0  0  0  0  0  0  0  0  0  0
  -25.8070  -54.6651   -5.2018 N   0  0  0  0  0  0  0  0  0  0  0  0
  -24.6471  -54.1049   -5.7064 C   0  0  0  0  0  0  0  0  0  0  0  0
  -26.3943  -54.1920   -4.0329 C   0  0  0  0  0  0  0  0  0  0  0  0
  -27.3992  -54.6683   -3.5087 O   0  0  0  0  0  0  0  0  0  0  0  0
  -25.7567  -53.1323   -3.4357 N   0  0  0  0  0  0  0  0  0  0  0  0
  -24.5622  -52.5978   -3.8219 C   0  0  0  0  0  0  0  0  0  0  0  0
  -23.9639  -51.7525   -3.1677 O   0  0  0  0  0  0  0  0  0  0  0  0
  -24.0144  -53.1062   -5.0894 C   0  0  0  0  0  0  0  0  0  0  0  0
  1  2  2  0
  1  3  1  1
  1  4  1  0
  1  5  1  0
  4  6  1  0
  6  7  1  6
  6  8  2  0
  6  9  1  0
  9 10  1  0
 10 11  1  0
 10 12  2  0
 10 13  1  0
  5 14  1  0
 15 14  1  6
 15 16  1  0
 16 17  1  0
 17 18  1  0
 18 19  1  6
 15 20  1  0
 18 20  1  0
 20 21  1  1
 17 22  1  1
 22 23  4  0
 22 24  4  0
 24 25  2  0
 24 26  4  0
 26 27  4  0
 27 28  2  0
 23 29  4  0
 27 29  4  0
M  END
