@<TRIPOS>MOLECULE
1TZ8_DES_B_128
 40 41 0 0 0
SMALL
GASTEIGER

@<TRIPOS>ATOM
      1 C          -2.7675    0.4736    0.8928 C.3     1  UNL1       -0.0612
      2 C          -1.4429    1.0014    0.3498 C.3     1  UNL1       -0.0297
      3 C          -0.3525   -0.0444    0.4661 C.2     1  UNL1       -0.0368
      4 C           0.4507   -0.0177    1.7073 C.ar    1  UNL1       -0.0214
      5 C           1.4798    0.9230    1.8568 C.ar    1  UNL1       -0.0509
      6 C           2.2264    0.9658    3.0381 C.ar    1  UNL1       -0.0196
      7 C           1.9412    0.0762    4.0836 C.ar    1  UNL1        0.1169
      8 O           2.6785    0.1089    5.2649 O.3     1  UNL1       -0.5068
      9 C           0.9046   -0.8527    3.9416 C.ar    1  UNL1       -0.0196
     10 C           0.1573   -0.8972    2.7609 C.ar    1  UNL1       -0.0509
     11 C          -0.1683   -1.0112   -0.4738 C.2     1  UNL1       -0.0368
     12 C          -0.9715   -1.0378   -1.7150 C.ar    1  UNL1       -0.0214
     13 C          -0.6782   -0.1582   -2.7685 C.ar    1  UNL1       -0.0509
     14 C          -1.4254   -0.2027   -3.9492 C.ar    1  UNL1       -0.0196
     15 C          -2.4637   -1.1342   -4.0901 C.ar    1  UNL1        0.1169
     16 O          -3.2159   -1.1875   -5.2613 O.3     1  UNL1       -0.5068
     17 C          -2.7470   -2.0215   -3.0461 C.ar    1  UNL1       -0.0196
     18 C          -2.0005   -1.9787   -1.8647 C.ar    1  UNL1       -0.0509
     19 C           0.9221   -2.0570   -0.3575 C.3     1  UNL1       -0.0297
     20 C           2.2466   -1.5292   -0.9006 C.3     1  UNL1       -0.0612
     21 H          -2.6611    0.1933    1.9624 H       1  UNL1        0.0233
     22 H          -3.1009   -0.4132    0.3148 H       1  UNL1        0.0233
     23 H          -3.5440    1.2626    0.8087 H       1  UNL1        0.0233
     24 H          -1.1589    1.9059    0.9308 H       1  UNL1        0.0311
     25 H          -1.5774    1.3380   -0.6984 H       1  UNL1        0.0311
     26 H           1.7062    1.6173    1.0568 H       1  UNL1        0.0625
     27 H           3.0236    1.6909    3.1410 H       1  UNL1        0.0654
     28 H           3.4348    0.7699    5.3988 H       1  UNL1        0.2921
     29 H           0.6769   -1.5385    4.7476 H       1  UNL1        0.0654
     30 H          -0.6465   -1.6168    2.6645 H       1  UNL1        0.0625
     31 H           0.1256    0.5614   -2.6719 H       1  UNL1        0.0625
     32 H          -1.1958    0.4843   -4.7537 H       1  UNL1        0.0654
     33 H          -3.0352   -0.5592   -6.0355 H       1  UNL1        0.2921
     34 H          -3.5446   -2.7458   -3.1514 H       1  UNL1        0.0654
     35 H          -2.2268   -2.6731   -1.0647 H       1  UNL1        0.0625
     36 H           0.6381   -2.9615   -0.9384 H       1  UNL1        0.0311
     37 H           1.0566   -2.3935    0.6907 H       1  UNL1        0.0311
     38 H           2.1402   -1.2490   -1.9702 H       1  UNL1        0.0233
     39 H           3.0232   -2.3182   -0.8164 H       1  UNL1        0.0233
     40 H           2.5800   -0.6424   -0.3226 H       1  UNL1        0.0233
@<TRIPOS>BOND
     1     1     2    1
     2     2     3    1
     3     3     4    1
     4     4     5   ar
     5     5     6   ar
     6     6     7   ar
     7     7     8    1
     8     7     9   ar
     9     4    10   ar
    10     9    10   ar
    11     3    11    2
    12    11    12    1
    13    12    13   ar
    14    13    14   ar
    15    14    15   ar
    16    15    16    1
    17    15    17   ar
    18    12    18   ar
    19    17    18   ar
    20    11    19    1
    21    19    20    1
    22     1    21    1
    23     1    22    1
    24     1    23    1
    25     2    24    1
    26     2    25    1
    27     5    26    1
    28     6    27    1
    29     8    28    1
    30     9    29    1
    31    10    30    1
    32    13    31    1
    33    14    32    1
    34    16    33    1
    35    17    34    1
    36    18    35    1
    37    19    36    1
    38    19    37    1
    39    20    38    1
    40    20    39    1
    41    20    40    1
