7QSW_CAP_A_501
     RDKit          3D

 21 20  0  0  0  0  0  0  0  0999 V2000
   76.3190  120.7568   67.0092 C   0  0  0  0  0  0  0  0  0  0  0  0
   76.6446  120.3051   68.4359 C   0  0  1  0  0  0  0  0  0  0  0  0
   75.9123  121.0953   69.4567 C   0  0  1  0  0  0  0  0  0  0  0  0
   76.3269  120.6848   70.8516 C   0  0  1  0  0  0  0  0  0  0  0  0
   75.8887  121.7315   71.8516 C   0  0  0  0  0  0  0  0  0  0  0  0
   76.1309  118.8913   68.5121 C   0  0  0  0  0  0  0  0  0  0  0  0
   75.7798  119.6181   66.3798 O   0  0  0  0  0  0  0  0  0  0  0  0
   78.0203  120.3159   68.5243 O   0  0  0  0  0  0  0  0  0  0  0  0
   75.9188  122.4644   69.2765 O   0  0  0  0  0  0  0  0  0  0  0  0
   75.6183  119.4942   71.1852 O   0  0  0  0  0  0  0  0  0  0  0  0
   75.9147  121.2329   73.1560 O   0  0  0  0  0  0  0  0  0  0  0  0
   74.8792  118.6715   68.5555 O   0  0  0  0  0  0  0  0  0  0  0  0
   77.0154  117.8092   68.5360 O   0  0  0  0  0  0  0  0  0  0  0  0
   74.8715  119.9967   65.0229 P   0  0  1  0  0  0  0  0  0  0  0  0
   75.5109  122.3821   74.3003 P   0  0  1  0  0  0  0  0  0  0  0  0
   75.6133  120.8156   64.0101 O   0  0  0  0  0  0  0  0  0  0  0  0
   74.4586  118.5220   64.2620 O   0  0  0  0  0  0  0  0  0  0  0  0
   73.4222  120.7743   65.4014 O   0  0  0  0  0  0  0  0  0  0  0  0
   74.2117  123.0979   74.0105 O   0  0  0  0  0  0  0  0  0  0  0  0
   75.3808  121.7214   75.8533 O   0  0  0  0  0  0  0  0  0  0  0  0
   76.7951  123.5056   74.3264 O   0  0  0  0  0  0  0  0  0  0  0  0
  1  2  1  0
  2  3  1  0
  3  4  1  0
  4  5  1  0
  2  6  1  0
  1  7  1  0
  2  8  1  1
  3  9  1  6
  4 10  1  1
  5 11  1  0
  6 12  2  0
  6 13  1  0
  7 14  1  0
 11 15  1  0
 14 16  2  0
 14 17  1  6
 14 18  1  0
 15 19  2  0
 15 20  1  1
 15 21  1  0
M  END
$$$$
