
     RDKit          3D

 27 27  0  0  0  0  0  0  0  0999 V2000
    1.9427   -7.6549   38.5627 C   0  0  0  0  0  0  0  0  0  0  0  0
    3.1125   -8.2671   38.1241 C   0  0  0  0  0  0  0  0  0  0  0  0
    3.3525   -8.3558   36.7441 C   0  0  0  0  0  0  0  0  0  0  0  0
    2.4280   -7.8200   35.8366 C   0  0  0  0  0  0  0  0  0  0  0  0
    1.3023   -7.2099   36.3817 C   0  0  0  0  0  0  0  0  0  0  0  0
    7.0353   -9.5380   34.8102 C   0  0  0  0  0  0  0  0  0  0  0  0
    3.9834   -8.7652   39.0591 O   0  0  0  0  0  0  0  0  0  0  0  0
    1.1384  -10.2326   31.8259 O   0  0  0  0  0  0  0  0  0  0  0  0
    3.3653   -9.2738   32.0284 O   0  0  0  0  0  0  0  0  0  0  0  0
    2.6872  -11.1348   33.7239 O   0  0  0  0  0  0  0  0  0  0  0  0
    1.6525   -8.7046   33.7578 O   0  0  0  0  0  0  0  0  0  0  0  0
    5.7179   -8.8241   36.8506 N   0  0  0  0  0  0  0  0  0  0  0  0
    2.2422   -9.9496   32.9410 P   0  0  2  0  0  5  0  0  0  0  0  0
    1.6338   -7.5397   40.0258 C   0  0  0  0  0  0  0  0  0  0  0  0
    4.5857   -9.0185   36.2537 C   0  0  0  0  0  0  0  0  0  0  0  0
    2.6014   -7.8370   34.3463 C   0  0  0  0  0  0  0  0  0  0  0  0
    1.0357   -7.1296   37.7048 N   0  0  0  0  0  0  0  0  0  0  0  0
    6.8834   -9.5866   36.3356 C   0  0  0  0  0  0  0  0  0  0  0  0
    6.8297  -11.0286   36.8438 C   0  0  0  0  0  0  0  0  0  0  0  0
    7.5043  -11.8863   36.0506 O   0  0  0  0  0  0  0  0  0  0  0  0
    8.4016   -9.0512   34.3032 C   0  0  0  0  0  0  0  0  0  0  0  0
    9.4119  -10.1719   34.0556 C   0  0  0  0  0  0  0  0  0  0  0  0
   10.5530   -9.6986   33.2932 N   0  0  0  0  0  0  0  0  0  0  0  0
   10.8168  -10.1644   32.0519 C   0  0  0  0  0  0  0  0  0  0  0  0
   12.0371  -10.7202   31.9796 N   0  0  0  0  0  0  0  0  0  0  0  0
   10.0240  -10.0794   31.0423 N   0  0  0  0  0  0  0  0  0  0  0  0
    6.2990  -11.4212   37.8709 O   0  0  0  0  0  0  0  0  0  0  0  0
  1  2  4  0
  2  3  4  0
  3  4  4  0
  4  5  4  0
  2  7  1  0
 10 13  2  0
  8 13  1  0
 11 13  1  0
  9 13  1  0
  1 14  1  0
 12 15  2  0
  3 15  1  0
 11 16  1  0
  4 16  1  0
  1 17  4  0
  5 17  4  0
 18  6  1  0
 12 18  1  0
 18 19  1  0
 19 20  1  0
  6 21  1  0
 21 22  1  0
 22 23  1  0
 23 24  1  0
 24 25  1  0
 24 26  2  0
 19 27  2  0
M  END
