7AVI_S2Q_A_1101
     RDKit          3D

 27 29  0  0  0  0  0  0  0  0999 V2000
  -22.7962    0.0729  -42.1739 C   0  0  0  0  0  0  0  0  0  0  0  0
  -22.9544    1.4522  -42.0259 C   0  0  0  0  0  0  0  0  0  0  0  0
  -24.2190    1.9839  -42.1962 C   0  0  0  0  0  0  0  0  0  0  0  0
  -25.2774    1.1427  -42.5092 C   0  0  0  0  0  0  0  0  0  0  0  0
  -26.6424    1.7101  -42.7379 C   0  0  0  0  0  0  0  0  0  0  0  0
  -28.8173    1.7390  -41.5726 C   0  0  1  0  0  0  0  0  0  0  0  0
  -29.2613    1.7203  -40.1130 C   0  0  0  0  0  0  0  0  0  0  0  0
  -29.4547   -0.7067  -41.5781 C   0  0  0  0  0  0  0  0  0  0  0  0
  -29.7705   -1.9217  -43.6243 C   0  0  0  0  0  0  0  0  0  0  0  0
  -21.3080    3.4268  -41.4648 C   0  0  2  0  0  0  0  0  0  0  0  0
  -20.4513    3.5944  -40.2282 C   0  0  0  0  0  0  0  0  0  0  0  0
  -21.4417   -0.1870  -41.9463 O   0  0  0  0  0  0  0  0  0  0  0  0
  -20.7755    1.0548  -41.6711 N   0  0  0  0  0  0  0  0  0  0  0  0
  -21.6641    1.9793  -41.7049 C   0  0  0  0  0  0  0  0  0  0  0  0
  -23.7863   -0.7503  -42.4707 N   0  0  0  0  0  0  0  0  0  0  0  0
  -25.0033   -0.2138  -42.6436 C   0  0  0  0  0  0  0  0  0  0  0  0
  -27.3763    1.9860  -41.6476 N   0  0  0  0  0  0  0  0  0  0  0  0
  -27.0329    1.9679  -43.8710 O   0  0  0  0  0  0  0  0  0  0  0  0
  -29.1651    0.4499  -42.2861 C   0  0  0  0  0  0  0  0  0  0  0  0
  -29.7703   -1.8779  -42.2396 C   0  0  0  0  0  0  0  0  0  0  0  0
  -29.1717    0.4071  -43.6740 C   0  0  0  0  0  0  0  0  0  0  0  0
  -29.4824   -0.7682  -44.3347 C   0  0  0  0  0  0  0  0  0  0  0  0
  -20.6743    4.0530  -42.6914 C   0  0  0  0  0  0  0  0  0  0  0  0
  -29.5306   -0.7958  -46.1000 S   0  0  2  0  0  0  0  0  0  0  0  0
  -28.9048   -2.0184  -46.5195 O   0  0  0  0  0  0  0  0  0  0  0  0
  -28.9763    0.4418  -46.5570 O   0  0  0  0  0  0  0  0  0  0  0  0
  -31.0471   -0.8390  -46.6017 N   0  0  0  0  0  0  0  0  0  0  0  0
  1  2  1  0
  2  3  2  0
  3  4  1  0
  4  5  1  0
  6  7  1  1
 10 11  1  1
  1 12  1  0
 12 13  1  0
 10 14  1  0
  2 14  1  0
 13 14  2  0
  1 15  2  0
  4 16  2  0
 15 16  1  0
  6 17  1  0
  5 17  1  0
  5 18  2  0
  6 19  1  0
  8 19  2  0
  8 20  1  0
  9 20  2  0
 19 21  1  0
 21 22  2  0
  9 22  1  0
 10 23  1  0
 22 24  1  0
 24 25  2  0
 24 26  2  0
 24 27  1  1
M  END
