6YSP_PAL_C_401
     RDKit          3D

 16 15  0  0  0  0  0  0  0  0999 V2000
    5.3918   48.8413  -54.4562 P   0  0  1  0  0  0  0  0  0  0  0  0
    4.3180   49.8995  -54.6510 O   0  0  0  0  0  0  0  0  0  0  0  0
    4.7807   47.3554  -54.8675 O   0  0  0  0  0  0  0  0  0  0  0  0
    6.6270   49.1932  -55.5910 O   0  0  0  0  0  0  0  0  0  0  0  0
    6.0402   48.9672  -52.8102 C   0  0  0  0  0  0  0  0  0  0  0  0
    6.7457   50.2235  -52.4690 C   0  0  0  0  0  0  0  0  0  0  0  0
    6.3406   51.2634  -53.1057 O   0  0  0  0  0  0  0  0  0  0  0  0
    7.7957   50.3126  -51.5156 N   0  0  0  0  0  0  0  0  0  0  0  0
    8.4248   51.5177  -51.0861 C   0  0  2  0  0  0  0  0  0  0  0  0
    9.7176   51.7103  -51.8429 C   0  0  0  0  0  0  0  0  0  0  0  0
   10.2705   50.7470  -52.4298 O   0  0  0  0  0  0  0  0  0  0  0  0
   10.3481   52.9382  -51.9253 O   0  0  0  0  0  0  0  0  0  0  0  0
    8.6439   51.6123  -49.6152 C   0  0  0  0  0  0  0  0  0  0  0  0
    7.3552   51.6738  -48.8768 C   0  0  0  0  0  0  0  0  0  0  0  0
    6.2848   51.7560  -49.5363 O   0  0  0  0  0  0  0  0  0  0  0  0
    7.3046   51.6432  -47.4810 O   0  0  0  0  0  0  0  0  0  0  0  0
  1  2  2  0
  1  3  1  6
  1  4  1  0
  1  5  1  0
  5  6  1  0
  6  7  2  0
  6  8  1  0
  8  9  1  0
  9 10  1  0
 10 11  2  0
 10 12  1  0
  9 13  1  1
 13 14  1  0
 14 15  2  0
 14 16  1  0
M  END
$$$$
