7WUX_6OI_C_402
     RDKit          3D

 17 16  0  0  0  0  0  0  0  0999 V2000
   21.8686  -12.8511  -43.7091 N   0  0  0  0  0  0  0  0  0  0  0  0
   23.1211   -9.3102  -43.8499 C   0  0  0  0  0  0  0  0  0  0  0  0
   22.2445   -8.0835  -43.7027 C   0  0  1  0  0  0  0  0  0  0  0  0
   22.8651   -6.8513  -44.2689 C   0  0  2  0  0  0  0  0  0  0  0  0
   23.8211   -6.1452  -43.3635 C   0  0  0  0  0  0  0  0  0  0  0  0
   22.9179  -11.8275  -43.7383 C   0  0  2  0  0  0  0  0  0  0  0  0
   23.7561  -12.0532  -42.5344 C   0  0  0  0  0  0  0  0  0  0  0  0
   24.9403  -11.6216  -42.4249 O   0  0  0  0  0  0  0  0  0  0  0  0
   23.2866  -12.7707  -41.4191 O   0  0  0  0  0  0  0  0  0  0  0  0
   22.1970  -10.4984  -43.7114 C   0  0  0  0  0  0  0  0  0  0  0  0
   21.0640   -8.3175  -44.3891 O   0  0  0  0  0  0  0  0  0  0  0  0
   21.8629   -5.9274  -44.8137 N   0  0  0  0  0  0  0  0  0  0  0  0
   24.1386   -4.8504  -43.8057 O   0  0  0  0  0  0  0  0  0  0  0  0
   24.9799   -3.9785  -42.6665 S   0  0  2  0  0  6  0  0  0  0  0  0
   25.1883   -2.5547  -43.0894 O   0  0  0  0  0  0  0  0  0  0  0  0
   26.3164   -4.5728  -42.3453 O   0  0  0  0  0  0  0  0  0  0  0  0
   24.0772   -4.0193  -41.2372 O   0  0  0  0  0  0  0  0  0  0  0  0
  2  3  1  0
  3  4  1  0
  4  5  1  0
  6  1  1  1
  6  7  1  0
  7  8  2  0
  7  9  1  0
  2 10  1  6
 10  6  1  6
  3 11  1  6
  4 12  1  1
  5 13  1  1
 13 14  1  0
 14 15  2  0
 14 16  2  0
 14 17  1  1
M  END
$$$$
