5SB2_1K2_A_1006
     RDKit          3D

 50 54  0  0  0  0  0  0  0  0999 V2000
  -28.1012   -4.6835   -0.5959 C   0  0  0  0  0  0  0  0  0  0  0  0
  -23.7799   -0.7229   -0.5223 C   0  0  0  0  0  0  0  0  0  0  0  0
  -23.2823    0.1177   -1.2778 O   0  0  0  0  0  0  0  0  0  0  0  0
  -22.9702   -1.3789    0.5532 C   0  0  0  0  0  0  0  0  0  0  0  0
  -22.6907   -2.7661    2.4458 C   0  0  0  0  0  0  0  0  0  0  0  0
  -21.3201   -2.7648    2.2893 C   0  0  0  0  0  0  0  0  0  0  0  0
  -20.7704   -2.0420    1.2474 C   0  0  0  0  0  0  0  0  0  0  0  0
  -19.2778   -2.0032    1.0887 C   0  0  0  0  0  0  0  0  0  0  0  0
  -19.1736   -1.8176   -1.2918 C   0  0  0  0  0  0  0  0  0  0  0  0
  -20.3351   -1.6236   -2.0378 C   0  0  0  0  0  0  0  0  0  0  0  0
  -20.3724   -2.2580   -3.2798 C   0  0  0  0  0  0  0  0  0  0  0  0
  -19.2347   -3.0407   -3.6718 C   0  0  0  0  0  0  0  0  0  0  0  0
  -20.7401   -3.1056   -5.3629 C   0  0  0  0  0  0  0  0  0  0  0  0
  -21.3102   -2.3228   -4.3686 C   0  0  0  0  0  0  0  0  0  0  0  0
  -18.1094   -2.6305   -1.7714 C   0  0  0  0  0  0  0  0  0  0  0  0
  -25.0975   -1.0784   -0.6695 N   0  0  0  0  0  0  0  0  0  0  0  0
  -25.4062   -2.1907   -1.5230 C   0  0  1  0  0  0  0  0  0  0  0  0
  -26.8399   -2.7338   -1.3777 C   0  0  1  0  0  0  0  0  0  0  0  0
  -26.4078   -2.0558   -2.6706 C   0  0  0  0  0  0  0  0  0  0  0  0
  -27.0342   -4.1881   -1.3204 C   0  0  0  0  0  0  0  0  0  0  0  0
  -26.1597   -5.0576   -1.9579 C   0  0  0  0  0  0  0  0  0  0  0  0
  -26.3597   -6.4263   -1.8500 C   0  0  0  0  0  0  0  0  0  0  0  0
  -27.4380   -6.9303   -1.1199 C   0  0  0  0  0  0  0  0  0  0  0  0
  -28.3109   -6.0500   -0.4952 C   0  0  0  0  0  0  0  0  0  0  0  0
  -23.5497   -2.0793    1.6180 C   0  0  0  0  0  0  0  0  0  0  0  0
  -19.0889   -1.1999   -0.0667 O   0  0  0  0  0  0  0  0  0  0  0  0
  -19.4723   -3.5508   -4.9430 N   0  0  0  0  0  4  0  0  0  0  0  0
  -18.1047   -3.2427   -2.9337 N   0  0  0  0  0  0  0  0  0  0  0  0
  -21.5953   -1.3559    0.3832 C   0  0  0  0  0  0  0  0  0  0  0  0
  -23.3363   -3.7097    3.7424 Cl  0  0  0  0  0  0  0  0  0  0  0  0
  -28.7476   -4.0305   -0.1257 H   0  0  0  0  0  0  0  0  0  0  0  0
  -20.7166   -3.2937    2.9380 H   0  0  0  0  0  0  0  0  0  0  0  0
  -18.8830   -2.9867    0.9402 H   0  0  0  0  0  0  0  0  0  0  0  0
  -18.7767   -1.6171    1.9514 H   0  0  0  0  0  0  0  0  0  0  0  0
  -21.1186   -1.0466   -1.6930 H   0  0  0  0  0  0  0  0  0  0  0  0
  -21.1783   -3.3271   -6.2705 H   0  0  0  0  0  0  0  0  0  0  0  0
  -22.2372   -1.8701   -4.4040 H   0  0  0  0  0  0  0  0  0  0  0  0
  -17.2832   -2.7477   -1.1640 H   0  0  0  0  0  0  0  0  0  0  0  0
  -25.8106   -0.5847   -0.2033 H   0  0  0  0  0  0  0  0  0  0  0  0
  -24.4047   -2.5637   -1.4779 H   0  0  0  0  0  0  0  0  0  0  0  0
  -27.6533   -2.5891   -0.6980 H   0  0  0  0  0  0  0  0  0  0  0  0
  -26.2809   -2.6362   -3.5605 H   0  0  0  0  0  0  0  0  0  0  0  0
  -26.7795   -1.2391   -3.2538 H   0  0  0  0  0  0  0  0  0  0  0  0
  -25.3677   -4.6890   -2.5073 H   0  0  0  0  0  0  0  0  0  0  0  0
  -25.7061   -7.0773   -2.3130 H   0  0  0  0  0  0  0  0  0  0  0  0
  -27.5848   -7.9492   -1.0454 H   0  0  0  0  0  0  0  0  0  0  0  0
  -29.1137   -6.4120    0.0427 H   0  0  0  0  0  0  0  0  0  0  0  0
  -24.5699   -2.0807    1.7746 H   0  0  0  0  0  0  0  0  0  0  0  0
  -18.8603   -4.1237   -5.4596 H   0  0  0  0  0  0  0  0  0  0  0  0
  -21.1853   -0.8201   -0.3977 H   0  0  0  0  0  0  0  0  0  0  0  0
  2  3  2  0
  2  4  1  0
  5  6  4  0
  6  7  4  0
  7  8  1  0
  9 10  4  0
 10 11  4  0
 11 12  4  0
 11 14  4  0
 13 14  4  0
  9 15  4  0
  2 16  1  0
 17 16  1  0
 17 18  1  0
 17 19  1  0
 18 19  1  0
 18 20  1  0
  1 20  4  0
 20 21  4  0
 21 22  4  0
 22 23  4  0
 23 24  4  0
  1 24  4  0
  4 25  4  0
  5 25  4  0
  8 26  1  0
  9 26  1  0
 12 27  4  0
 13 27  4  0
 12 28  4  0
 15 28  4  0
  4 29  4  0
  7 29  4  0
  5 30  1  0
  1 31  1  0
  6 32  1  0
  8 33  1  0
  8 34  1  0
 10 35  1  0
 13 36  1  0
 14 37  1  0
 15 38  1  0
 16 39  1  0
 17 40  1  6
 18 41  1  1
 19 42  1  0
 19 43  1  0
 21 44  1  0
 22 45  1  0
 23 46  1  0
 24 47  1  0
 25 48  1  0
 27 49  1  0
 29 50  1  0
M  CHG  1  27   1
M  END
