
     RDKit          3D

 45 49  0  0  0  0  0  0  0  0999 V2000
   -3.3038   56.0254   21.4491 O   0  0  0  0  0  0  0  0  0  0  0  0
   -4.3379   55.7302   20.8643 C   0  0  0  0  0  0  0  0  0  0  0  0
   -5.4558   56.5074   20.9987 N   0  0  0  0  0  0  0  0  0  0  0  0
   -4.4330   54.5227   20.0067 C   0  0  0  0  0  0  0  0  0  0  0  0
   -5.2059   54.4948   18.8295 C   0  0  0  0  0  0  0  0  0  0  0  0
   -3.7890   53.3670   20.4574 C   0  0  0  0  0  0  0  0  0  0  0  0
   -3.9148   52.1859   19.7417 C   0  0  0  0  0  0  0  0  0  0  0  0
   -4.6998   52.1636   18.5880 C   0  0  0  0  0  0  0  0  0  0  0  0
   -5.3504   53.3132   18.0982 C   0  0  0  0  0  0  0  0  0  0  0  0
   -7.6396   53.2578   16.9631 C   0  0  2  0  0  0  0  0  0  0  0  0
   -8.0924   54.5791   16.6976 O   0  0  0  0  0  0  0  0  0  0  0  0
   -8.3804   52.8291   18.2266 C   0  0  2  0  0  0  0  0  0  0  0  0
   -8.3651   51.4197   18.4596 O   0  0  0  0  0  0  0  0  0  0  0  0
   -9.7810   53.3234   17.8804 C   0  0  2  0  0  0  0  0  0  0  0  0
  -10.4640   52.3067   17.1266 O   0  0  0  0  0  0  0  0  0  0  0  0
   -9.5200   54.5483   16.9814 C   0  0  1  0  0  0  0  0  0  0  0  0
   -9.9427   55.8828   17.5824 C   0  0  0  0  0  0  0  0  0  0  0  0
   -8.8924   56.4726   18.3370 O   0  0  0  0  0  0  0  0  0  0  0  0
   -8.8491   56.1232   19.9059 P   0  0  2  0  0  5  0  0  0  0  0  0
   -8.4064   57.5111   20.5658 O   0  0  0  0  0  0  0  0  0  0  0  0
   -7.9577   54.9780   20.2507 O   0  0  0  0  0  0  0  0  0  0  0  0
  -10.3760   56.0112   20.3038 O   0  0  0  0  0  0  0  0  0  0  0  0
  -11.0337   56.6831   21.5788 P   0  0  1  0  0  5  0  0  0  0  0  0
  -12.5839   56.2843   21.4765 O   0  0  0  0  0  0  0  0  0  0  0  0
  -10.4405   56.2857   22.8922 O   0  0  0  0  0  0  0  0  0  0  0  0
  -11.0640   58.2652   21.3140 O   0  0  0  0  0  0  0  0  0  0  0  0
  -11.4916   58.7317   20.0443 C   0  0  0  0  0  0  0  0  0  0  0  0
  -11.0623   60.1942   19.8621 C   0  0  2  0  0  0  0  0  0  0  0  0
   -9.5857   60.4047   20.1722 C   0  0  1  0  0  0  0  0  0  0  0  0
   -9.1054   61.6535   19.6440 O   0  0  0  0  0  0  0  0  0  0  0  0
   -9.5950   60.5290   21.6886 C   0  0  1  0  0  0  0  0  0  0  0  0
   -8.4516   61.2408   22.1617 O   0  0  0  0  0  0  0  0  0  0  0  0
  -10.9154   61.2717   21.9495 C   0  0  1  0  0  0  0  0  0  0  0  0
  -11.7594   61.0325   20.8064 O   0  0  0  0  0  0  0  0  0  0  0  0
  -11.5751   60.8422   23.1773 N   0  0  0  0  0  0  0  0  0  0  0  0
  -12.3748   61.5625   24.0270 C   0  0  0  0  0  0  0  0  0  0  0  0
  -12.7727   60.6545   24.9960 C   0  0  0  0  0  0  0  0  0  0  0  0
  -12.2042   59.4170   24.7814 N   0  0  0  0  0  0  0  0  0  0  0  0
  -11.4764   59.5703   23.6958 C   0  0  0  0  0  0  0  0  0  0  0  0
  -12.7266   62.8574   23.9604 N   0  0  0  0  0  0  0  0  0  0  0  0
  -13.5480   63.2100   24.9632 C   0  0  0  0  0  0  0  0  0  0  0  0
  -14.0554   62.4203   25.9339 N   0  0  0  0  0  0  0  0  0  0  0  0
  -13.6566   61.1291   25.9806 C   0  0  0  0  0  0  0  0  0  0  0  0
  -14.2041   60.3232   26.9733 N   0  0  0  0  0  0  0  0  0  0  0  0
   -6.1951   53.1346   17.0106 N   0  0  0  0  0  0  0  0  0  0  0  0
  1  2  2  0
  2  3  1  0
  2  4  1  0
  4  5  4  0
  4  6  4  0
  6  7  4  0
  7  8  4  0
  8  9  4  0
  5  9  4  0
 10 11  1  0
 10 12  1  0
 12 13  1  6
 12 14  1  0
 14 15  1  6
 11 16  1  0
 14 16  1  0
 16 17  1  1
 17 18  1  0
 19 18  1  0
 19 20  1  1
 19 21  2  0
 19 22  1  0
 23 22  1  0
 23 24  1  1
 23 25  2  0
 23 26  1  0
 26 27  1  0
 28 27  1  1
 28 29  1  0
 29 30  1  6
 29 31  1  0
 31 32  1  6
 31 33  1  0
 28 34  1  0
 33 34  1  0
 33 35  1  1
 35 36  4  0
 36 37  4  0
 37 38  4  0
 35 39  4  0
 38 39  4  0
 36 40  4  0
 40 41  4  0
 41 42  4  0
 37 43  4  0
 42 43  4  0
 43 44  1  0
 10 45  1  1
  9 45  1  0
M  END
