7T2I_E9F_A_1705
     RDKit          3D

 29 33  0  0  0  0  0  0  0  0999 V2000
 -119.5904 -143.2603  116.1393 C   0  0  2  0  0  0  0  0  0  0  0  0
 -118.5609 -145.3996  116.8355 C   0  0  0  0  0  0  0  0  0  0  0  0
 -122.1056 -146.5732  118.7227 C   0  0  0  0  0  0  0  0  0  0  0  0
 -122.7265 -149.2438  121.2067 C   0  0  0  0  0  0  0  0  0  0  0  0
 -121.1661 -150.1012  119.6838 C   0  0  0  0  0  0  0  0  0  0  0  0
 -120.3145 -149.0755  117.9505 C   0  0  0  0  0  0  0  0  0  0  0  0
 -124.4520 -141.2657  119.9256 C   0  0  0  0  0  0  0  0  0  0  0  0
 -124.2605 -143.5052  118.1042 C   0  0  2  0  0  0  0  0  0  0  0  0
 -125.2981 -143.6217  116.9931 C   0  0  0  0  0  0  0  0  0  0  0  0
 -124.3140 -142.4861  116.9905 C   0  0  0  0  0  0  0  0  0  0  0  0
 -123.1564 -144.4636  118.1321 C   0  0  0  0  0  0  0  0  0  0  0  0
 -120.9438 -144.9087  117.4850 C   0  0  0  0  0  0  0  0  0  0  0  0
 -119.4812 -143.4219  114.6542 C   0  0  0  0  0  0  0  0  0  0  0  0
 -118.4184 -142.4940  116.7146 C   0  0  0  0  0  0  0  0  0  0  0  0
 -117.3141 -144.5298  116.8555 C   0  0  0  0  0  0  0  0  0  0  0  0
 -121.9937 -147.8520  119.3416 C   0  0  0  0  0  0  0  0  0  0  0  0
 -122.7617 -148.0688  120.5019 C   0  0  0  0  0  0  0  0  0  0  0  0
 -121.2025 -148.9021  118.9656 C   0  0  0  0  0  0  0  0  0  0  0  0
 -119.7747 -150.3384  118.0649 C   0  0  0  0  0  0  0  0  0  0  0  0
 -123.1699 -145.7074  118.7270 C   0  0  0  0  0  0  0  0  0  0  0  0
 -124.5743 -143.8874  120.8146 N   0  0  0  0  0  0  0  0  0  0  0  0
 -122.0026 -144.0840  117.5046 N   0  0  0  0  0  0  0  0  0  0  0  0
 -119.7206 -144.5294  116.8317 N   0  0  0  0  0  0  0  0  0  0  0  0
 -120.9956 -146.1092  118.0733 N   0  0  0  0  0  0  0  0  0  0  0  0
 -121.9242 -150.2615  120.7915 N   0  0  0  0  0  0  0  0  0  0  0  0
 -120.2985 -150.9521  119.1195 N   0  0  0  0  0  0  0  0  0  0  0  0
 -117.5484 -143.2960  117.4290 O   0  0  0  0  0  0  0  0  0  0  0  0
 -126.4632 -142.9171  119.5470 O   0  0  0  0  0  0  0  0  0  0  0  0
 -124.9448 -142.9476  119.6550 S   0  0  1  0  0  6  0  0  0  0  0  0
  9  8  1  6
  8 10  1  0
 10  9  1  6
  8 11  1  1
 13  1  1  6
  1 14  1  0
  2 15  1  0
  3 16  1  0
 16 17  1  0
  4 17  2  0
  6 18  1  0
  5 18  1  0
 16 18  2  0
  6 19  2  0
  3 20  2  0
 11 20  1  0
 12 22  1  0
 11 22  2  0
  1 23  1  1
  2 23  1  6
 12 23  1  0
 12 24  2  0
  3 24  1  0
  5 25  2  0
  4 25  1  0
 19 26  1  0
  5 26  1  0
 14 27  1  1
 15 27  1  6
 28 29  2  0
 29  7  1  1
  8 29  1  0
 21 29  2  0
M  END
$$$$
