1YV3_BIT_A_800
     RDKit          3D

 38 41  0  0  0  0  0  0  0  0999 V2000
   23.8865   39.5030   44.6623 O   0  0  0  0  0  0  0  0  0  0  0  0
   23.6333   38.2801   44.4861 C   0  0  0  0  0  0  0  0  0  0  0  0
   22.4299   37.8531   43.7419 C   0  0  0  0  0  0  0  0  0  0  0  0
   21.4070   38.7524   43.4025 C   0  0  0  0  0  0  0  0  0  0  0  0
   20.2780   38.3041   42.6981 C   0  0  0  0  0  0  0  0  0  0  0  0
   19.1641   39.2553   42.3748 C   0  0  1  0  0  0  0  0  0  0  0  0
   20.1689   36.9468   42.3563 C   0  0  0  0  0  0  0  0  0  0  0  0
   22.3177   36.4969   43.3811 C   0  0  0  0  0  0  0  0  0  0  0  0
   21.1911   36.0514   42.6839 C   0  0  0  0  0  0  0  0  0  0  0  0
   24.4929   37.2204   45.1371 C   0  0  2  0  0  0  0  0  0  0  0  0
   24.3901   35.9111   44.4267 C   0  0  0  0  0  0  0  0  0  0  0  0
   23.4019   35.5932   43.6411 N   0  0  0  0  0  0  0  0  0  0  0  0
   24.1242   37.0620   46.4855 O   0  0  0  0  0  0  0  0  0  0  0  0
   26.0043   37.4911   45.0545 C   0  0  1  0  0  0  0  0  0  0  0  0
   26.6705   36.1085   44.8952 C   0  0  1  0  0  0  0  0  0  0  0  0
   25.6221   35.2078   44.4273 N   0  0  0  0  0  0  0  0  0  0  0  0
   25.8001   33.8043   44.1418 C   0  0  0  0  0  0  0  0  0  0  0  0
   24.7783   32.8777   44.4265 C   0  0  0  0  0  0  0  0  0  0  0  0
   24.9582   31.5178   44.1562 C   0  0  0  0  0  0  0  0  0  0  0  0
   26.1589   31.0655   43.6059 C   0  0  0  0  0  0  0  0  0  0  0  0
   27.1842   31.9719   43.3292 C   0  0  0  0  0  0  0  0  0  0  0  0
   27.0100   33.3330   43.5981 C   0  0  0  0  0  0  0  0  0  0  0  0
   21.4830   39.7945   43.6895 H   0  0  0  0  0  0  0  0  0  0  0  0
   19.5693   40.2420   42.0643 H   0  0  0  0  0  0  0  0  0  0  0  0
   18.5420   38.8631   41.5423 H   0  0  0  0  0  0  0  0  0  0  0  0
   18.5242   39.3924   43.2714 H   0  0  0  0  0  0  0  0  0  0  0  0
   19.2962   36.5834   41.8278 H   0  0  0  0  0  0  0  0  0  0  0  0
   21.1082   35.0119   42.3929 H   0  0  0  0  0  0  0  0  0  0  0  0
   23.1339   36.9829   46.5217 H   0  0  0  0  0  0  0  0  0  0  0  0
   26.2379   38.1076   44.1574 H   0  0  0  0  0  0  0  0  0  0  0  0
   26.3811   38.0192   45.9577 H   0  0  0  0  0  0  0  0  0  0  0  0
   27.4993   36.1694   44.1587 H   0  0  0  0  0  0  0  0  0  0  0  0
   27.0565   35.7520   45.8746 H   0  0  0  0  0  0  0  0  0  0  0  0
   23.8491   33.1984   44.8778 H   0  0  0  0  0  0  0  0  0  0  0  0
   24.1676   30.8132   44.3797 H   0  0  0  0  0  0  0  0  0  0  0  0
   26.2965   30.0122   43.3979 H   0  0  0  0  0  0  0  0  0  0  0  0
   28.1158   31.6198   42.9051 H   0  0  0  0  0  0  0  0  0  0  0  0
   27.8178   34.0135   43.3683 H   0  0  0  0  0  0  0  0  0  0  0  0
  1  2  2  0
  2  3  1  0
  3  4  1  0
  4  5  2  0
  5  6  1  0
  5  7  1  0
  3  8  2  0
  7  9  2  0
  8  9  1  0
  2 10  1  0
 10 11  1  0
  8 12  1  0
 11 12  2  0
 10 13  1  1
 10 14  1  0
 14 15  1  0
 11 16  1  0
 15 16  1  0
 16 17  1  0
 17 18  2  0
 18 19  1  0
 19 20  2  0
 20 21  1  0
 17 22  1  0
 21 22  2  0
  4 23  1  0
  6 24  1  6
  6 25  1  0
  6 26  1  0
  7 27  1  0
  9 28  1  0
 13 29  1  0
 14 30  1  6
 14 31  1  0
 15 32  1  6
 15 33  1  0
 18 34  1  0
 19 35  1  0
 20 36  1  0
 21 37  1  0
 22 38  1  0
M  END
