1X8X_TYR_A_952
     RDKit          3D

 24 24  0  0  0  0  0  0  0  0999 V2000
    7.9919   27.3295   15.0427 N   0  0  0  0  0  0  0  0  0  0  0  0
    6.9052   27.8792   15.9070 C   0  0  2  0  0  0  0  0  0  0  0  0
    5.6853   28.2008   15.0523 C   0  0  0  0  0  0  0  0  0  0  0  0
    4.7700   28.8758   15.5666 O   0  0  0  0  0  0  0  0  0  0  0  0
    7.3769   29.1561   16.6123 C   0  0  0  0  0  0  0  0  0  0  0  0
    8.8642   29.3990   16.5152 C   0  0  0  0  0  0  0  0  0  0  0  0
    9.3664   30.4870   15.8035 C   0  0  0  0  0  0  0  0  0  0  0  0
    9.7715   28.5429   17.1381 C   0  0  0  0  0  0  0  0  0  0  0  0
   10.7355   30.7167   15.7137 C   0  0  0  0  0  0  0  0  0  0  0  0
   11.1408   28.7651   17.0535 C   0  0  0  0  0  0  0  0  0  0  0  0
   11.6157   29.8518   16.3406 C   0  0  0  0  0  0  0  0  0  0  0  0
   12.9756   30.0691   16.2486 O   0  0  0  0  0  0  0  0  0  0  0  0
    5.6772   27.7907   13.8726 O   0  0  0  0  0  0  0  0  0  0  0  0
    7.6631   26.4815   14.5809 H   0  0  0  0  0  0  0  0  0  0  0  0
    8.8053   27.1100   15.6174 H   0  0  0  0  0  0  0  0  0  0  0  0
    6.6504   27.1463   16.6438 H   0  0  0  0  0  0  0  0  0  0  0  0
    7.1148   29.0849   17.6470 H   0  0  0  0  0  0  0  0  0  0  0  0
    6.8969   29.9764   16.1205 H   0  0  0  0  0  0  0  0  0  0  0  0
    8.7117   31.1329   15.3355 H   0  0  0  0  0  0  0  0  0  0  0  0
    9.4206   27.7313   17.6704 H   0  0  0  0  0  0  0  0  0  0  0  0
   11.0926   31.5268   15.1832 H   0  0  0  0  0  0  0  0  0  0  0  0
   11.8000   28.1228   17.5202 H   0  0  0  0  0  0  0  0  0  0  0  0
   13.3011   30.8039   15.7668 H   0  0  0  0  0  0  0  0  0  0  0  0
    6.3972   27.2873   13.5465 H   0  0  0  0  0  0  0  0  0  0  0  0
  2  1  1  0
  2  3  1  0
  3  4  2  0
  2  5  1  0
  5  6  1  0
  6  7  2  0
  6  8  1  0
  7  9  1  0
  8 10  2  0
  9 11  2  0
 10 11  1  0
 11 12  1  0
  3 13  1  0
  1 14  1  0
  1 15  1  0
  2 16  1  1
  5 17  1  0
  5 18  1  0
  7 19  1  0
  8 20  1  0
  9 21  1  0
 10 22  1  0
 12 23  1  0
 13 24  1  0
M  END
