7A1P_QW2_A_505
     RDKit          3D

 13 12  0  0  0  0  0  0  0  0999 V2000
   20.4094  -34.1698  -18.5955 C   0  0  0  0  0  0  0  0  0  0  0  0
   20.7440  -34.4565  -20.0234 C   0  0  0  0  0  0  0  0  0  0  0  0
   20.2509  -35.8442  -20.4411 C   0  0  0  0  0  0  0  0  0  0  0  0
   19.6112  -33.1223  -14.5470 C   0  0  0  0  0  0  0  0  0  0  0  0
   18.4528  -32.9154  -19.4599 C   0  0  0  0  0  0  0  0  0  0  0  0
   19.0170  -33.6872  -18.3423 C   0  0  2  0  0  0  0  0  0  0  0  0
   18.9742  -32.8624  -17.0480 C   0  0  0  0  0  0  0  0  0  0  0  0
   19.4232  -33.6533  -15.8828 C   0  0  0  0  0  0  0  0  0  0  0  0
   19.6589  -34.8918  -16.0678 O   0  0  0  0  0  0  0  0  0  0  0  0
   19.9541  -33.9356  -13.6423 O   0  0  0  0  0  0  0  0  0  0  0  0
   19.4393  -31.7900  -14.2029 O   0  0  0  0  0  0  0  0  0  0  0  0
   18.9928  -31.8135  -19.8132 O   0  0  0  0  0  0  0  0  0  0  0  0
   17.3389  -33.2928  -20.1966 O   0  0  0  0  0  0  0  0  0  0  0  0
  1  2  1  0
  2  3  1  0
  6  1  1  6
  5  6  1  0
  6  7  1  0
  7  8  1  0
  4  8  1  0
  8  9  2  0
  4 10  2  0
  4 11  1  0
  5 12  2  0
  5 13  1  0
M  END
$$$$
