7U0U_FK5_B_201
     RDKit          3D

126129  0  0  0  0  0  0  0  0999 V2000
  -32.7479  -13.7378  -28.5416 C   0  0  0  0  0  0  0  0  0  0  0  0
  -34.2123  -13.4102  -28.5745 C   0  0  1  0  0  0  0  0  0  0  0  0
  -35.0109  -14.6923  -28.8392 C   0  0  0  0  0  0  0  0  0  0  0  0
  -34.9879  -15.6455  -27.6377 C   0  0  0  0  0  0  0  0  0  0  0  0
  -35.4608  -14.9468  -26.3579 C   0  0  0  0  0  0  0  0  0  0  0  0
  -34.6261  -13.6877  -26.0857 C   0  0  0  0  0  0  0  0  0  0  0  0
  -35.0115  -11.5562  -27.2452 C   0  0  0  0  0  0  0  0  0  0  0  0
  -35.4573  -10.9226  -26.0937 C   0  0  0  0  0  0  0  0  0  0  0  0
  -34.5032  -10.1654  -25.1784 C   0  0  2  0  0  0  0  0  0  0  0  0
  -33.3547   -9.5169  -25.9591 C   0  0  2  0  0  0  0  0  0  0  0  0
  -32.2105   -9.1376  -25.0125 C   0  0  0  0  0  0  0  0  0  0  0  0
  -31.8750  -10.2997  -24.0672 C   0  0  2  0  0  0  0  0  0  0  0  0
  -33.1314  -10.7080  -23.3018 C   0  0  2  0  0  0  0  0  0  0  0  0
  -32.9511  -11.8816  -22.3237 C   0  0  1  0  0  0  0  0  0  0  0  0
  -32.1646  -13.0412  -22.9285 C   0  0  0  0  0  0  0  0  0  0  0  0
  -32.1416  -14.3217  -22.0796 C   0  0  1  0  0  0  0  0  0  0  0  0
  -31.0331  -14.2340  -21.0207 C   0  0  0  0  0  0  0  0  0  0  0  0
  -29.6973  -14.5533  -21.6378 C   0  0  0  0  0  0  0  0  0  0  0  0
  -28.8115  -13.4512  -22.0265 C   0  0  0  0  0  0  0  0  0  0  0  0
  -27.4820  -13.7085  -22.6819 C   0  0  1  0  0  0  0  0  0  0  0  0
  -27.6911  -13.6599  -24.1634 C   0  0  0  0  0  0  0  0  0  0  0  0
  -28.0488  -14.9002  -24.9652 C   0  0  0  0  0  0  0  0  0  0  0  0
  -28.5828  -14.5698  -26.3613 C   0  0  2  0  0  0  0  0  0  0  0  0
  -30.0826  -14.2254  -26.3754 C   0  0  1  0  0  0  0  0  0  0  0  0
  -30.6152  -13.7721  -27.7383 C   0  0  2  0  0  0  0  0  0  0  0  0
  -29.8491  -12.5542  -28.1974 C   0  0  0  0  0  0  0  0  0  0  0  0
  -30.5883  -11.3311  -28.4732 C   0  0  0  0  0  0  0  0  0  0  0  0
  -29.9450  -10.0870  -29.0126 C   0  0  2  0  0  0  0  0  0  0  0  0
  -31.0599   -9.0819  -29.2990 C   0  0  0  0  0  0  0  0  0  0  0  0
  -30.4884   -7.8030  -29.8993 C   0  0  1  0  0  0  0  0  0  0  0  0
  -29.7392   -8.1144  -31.1969 C   0  0  2  0  0  0  0  0  0  0  0  0
  -28.6367   -9.1448  -30.9600 C   0  0  0  0  0  0  0  0  0  0  0  0
  -29.1849  -10.4280  -30.3077 C   0  0  0  0  0  0  0  0  0  0  0  0
  -33.8068   -8.2989  -26.7770 C   0  0  0  0  0  0  0  0  0  0  0  0
  -33.5008  -14.5862  -21.4154 C   0  0  0  0  0  0  0  0  0  0  0  0
  -29.2881  -15.9882  -21.8230 C   0  0  0  0  0  0  0  0  0  0  0  0
  -26.5409  -12.5752  -22.2820 C   0  0  0  0  0  0  0  0  0  0  0  0
  -25.1279  -12.9239  -22.7084 C   0  0  0  0  0  0  0  0  0  0  0  0
  -24.0099  -12.3156  -21.9928 C   0  0  0  0  0  0  0  0  0  0  0  0
  -30.9413  -15.3967  -25.8885 C   0  0  0  0  0  0  0  0  0  0  0  0
  -28.3507  -12.6414  -28.3736 C   0  0  0  0  0  0  0  0  0  0  0  0
  -30.9057   -8.5152  -22.9111 C   0  0  0  0  0  0  0  0  0  0  0  0
  -31.7172  -12.5248  -20.4385 C   0  0  0  0  0  0  0  0  0  0  0  0
  -32.7880   -7.2819  -29.6403 C   0  0  0  0  0  0  0  0  0  0  0  0
  -34.6180  -12.8384  -27.2842 N   0  0  0  0  0  0  0  0  0  0  0  0
  -31.9894  -13.4351  -27.5628 O   0  0  0  0  0  0  0  0  0  0  0  0
  -32.2493  -14.3740  -29.6533 O   0  0  0  0  0  0  0  0  0  0  0  0
  -34.9727  -10.8112  -28.4052 O   0  0  0  0  0  0  0  0  0  0  0  0
  -36.8014  -10.9823  -25.7419 O   0  0  0  0  0  0  0  0  0  0  0  0
  -34.0597  -11.1465  -24.2696 O   0  0  0  0  0  0  0  0  0  0  0  0
  -35.2353   -9.1462  -24.4688 O   0  0  0  0  0  0  0  0  0  0  0  0
  -30.8418   -9.9062  -23.1747 O   0  0  0  0  0  0  0  0  0  0  0  0
  -32.3546  -11.4605  -21.1197 O   0  0  0  0  0  0  0  0  0  0  0  0
  -27.5728  -12.4185  -24.7756 O   0  0  0  0  0  0  0  0  0  0  0  0
  -28.3553  -15.7027  -27.1697 O   0  0  0  0  0  0  0  0  0  0  0  0
  -31.5340   -6.9068  -30.1919 O   0  0  0  0  0  0  0  0  0  0  0  0
  -29.1764   -6.9114  -31.6939 O   0  0  0  0  0  0  0  0  0  0  0  0
  -34.4030  -12.7001  -29.3518 H   0  0  0  0  0  0  0  0  0  0  0  0
  -36.0260  -14.4288  -29.0510 H   0  0  0  0  0  0  0  0  0  0  0  0
  -34.5592  -15.1963  -29.6680 H   0  0  0  0  0  0  0  0  0  0  0  0
  -35.6327  -16.4752  -27.8397 H   0  0  0  0  0  0  0  0  0  0  0  0
  -33.9805  -15.9738  -27.4887 H   0  0  0  0  0  0  0  0  0  0  0  0
  -36.4884  -14.6697  -26.4685 H   0  0  0  0  0  0  0  0  0  0  0  0
  -35.3439  -15.6209  -25.5352 H   0  0  0  0  0  0  0  0  0  0  0  0
  -35.0534  -13.1463  -25.2675 H   0  0  0  0  0  0  0  0  0  0  0  0
  -33.6235  -13.9698  -25.8411 H   0  0  0  0  0  0  0  0  0  0  0  0
  -33.0041  -10.2455  -26.6598 H   0  0  0  0  0  0  0  0  0  0  0  0
  -31.3435   -8.8943  -25.5905 H   0  0  0  0  0  0  0  0  0  0  0  0
  -32.5160   -8.2965  -24.4259 H   0  0  0  0  0  0  0  0  0  0  0  0
  -31.5299  -11.1411  -24.6311 H   0  0  0  0  0  0  0  0  0  0  0  0
  -33.4283   -9.8595  -22.7214 H   0  0  0  0  0  0  0  0  0  0  0  0
  -33.9355  -12.2436  -22.1117 H   0  0  0  0  0  0  0  0  0  0  0  0
  -32.5998  -13.2791  -23.8766 H   0  0  0  0  0  0  0  0  0  0  0  0
  -31.1495  -12.7102  -22.9987 H   0  0  0  0  0  0  0  0  0  0  0  0
  -31.9376  -15.1447  -22.7323 H   0  0  0  0  0  0  0  0  0  0  0  0
  -31.0079  -13.2434  -20.6167 H   0  0  0  0  0  0  0  0  0  0  0  0
  -31.2363  -14.9408  -20.2435 H   0  0  0  0  0  0  0  0  0  0  0  0
  -29.1064  -12.4786  -21.8466 H   0  0  0  0  0  0  0  0  0  0  0  0
  -27.0753  -14.6541  -22.3900 H   0  0  0  0  0  0  0  0  0  0  0  0
  -27.1723  -15.5051  -25.0686 H   0  0  0  0  0  0  0  0  0  0  0  0
  -28.8247  -15.4133  -24.4364 H   0  0  0  0  0  0  0  0  0  0  0  0
  -28.0748  -13.6998  -26.7217 H   0  0  0  0  0  0  0  0  0  0  0  0
  -30.1619  -13.3972  -25.7025 H   0  0  0  0  0  0  0  0  0  0  0  0
  -30.5026  -14.5439  -28.4707 H   0  0  0  0  0  0  0  0  0  0  0  0
  -31.6036  -11.3187  -28.2890 H   0  0  0  0  0  0  0  0  0  0  0  0
  -29.2489   -9.6758  -28.3119 H   0  0  0  0  0  0  0  0  0  0  0  0
  -31.7544   -9.5142  -29.9887 H   0  0  0  0  0  0  0  0  0  0  0  0
  -31.5518   -8.8413  -28.3797 H   0  0  0  0  0  0  0  0  0  0  0  0
  -29.8154   -7.3678  -29.1904 H   0  0  0  0  0  0  0  0  0  0  0  0
  -30.4248   -8.5257  -31.9081 H   0  0  0  0  0  0  0  0  0  0  0  0
  -28.1904   -9.3970  -31.8993 H   0  0  0  0  0  0  0  0  0  0  0  0
  -27.9163   -8.7150  -30.2957 H   0  0  0  0  0  0  0  0  0  0  0  0
  -28.3703  -11.0823  -30.0769 H   0  0  0  0  0  0  0  0  0  0  0  0
  -29.8568  -10.9053  -30.9899 H   0  0  0  0  0  0  0  0  0  0  0  0
  -34.1677   -7.5392  -26.1156 H   0  0  0  0  0  0  0  0  0  0  0  0
  -32.9789   -7.9191  -27.3384 H   0  0  0  0  0  0  0  0  0  0  0  0
  -34.5888   -8.5896  -27.4470 H   0  0  0  0  0  0  0  0  0  0  0  0
  -33.7373  -13.7796  -20.7533 H   0  0  0  0  0  0  0  0  0  0  0  0
  -34.2569  -14.6628  -22.1686 H   0  0  0  0  0  0  0  0  0  0  0  0
  -33.4551  -15.5006  -20.8615 H   0  0  0  0  0  0  0  0  0  0  0  0
  -30.0718  -16.6298  -21.4782 H   0  0  0  0  0  0  0  0  0  0  0  0
  -29.1042  -16.1755  -22.8603 H   0  0  0  0  0  0  0  0  0  0  0  0
  -28.3972  -16.1802  -21.2625 H   0  0  0  0  0  0  0  0  0  0  0  0
  -26.8466  -11.6698  -22.7635 H   0  0  0  0  0  0  0  0  0  0  0  0
  -26.5724  -12.4402  -21.2210 H   0  0  0  0  0  0  0  0  0  0  0  0
  -24.9600  -13.5780  -23.4888 H   0  0  0  0  0  0  0  0  0  0  0  0
  -24.1896  -11.6628  -21.2140 H   0  0  0  0  0  0  0  0  0  0  0  0
  -23.0399  -12.5385  -22.2659 H   0  0  0  0  0  0  0  0  0  0  0  0
  -30.8499  -16.2145  -26.5724 H   0  0  0  0  0  0  0  0  0  0  0  0
  -30.6090  -15.7037  -24.9189 H   0  0  0  0  0  0  0  0  0  0  0  0
  -31.9650  -15.0901  -25.8341 H   0  0  0  0  0  0  0  0  0  0  0  0
  -28.0180  -13.6253  -28.1162 H   0  0  0  0  0  0  0  0  0  0  0  0
  -28.0988  -12.4350  -29.3929 H   0  0  0  0  0  0  0  0  0  0  0  0
  -27.8744  -11.9257  -27.7365 H   0  0  0  0  0  0  0  0  0  0  0  0
  -30.1195   -8.2432  -22.2382 H   0  0  0  0  0  0  0  0  0  0  0  0
  -30.7946   -7.9731  -23.8270 H   0  0  0  0  0  0  0  0  0  0  0  0
  -31.8512   -8.2790  -22.4693 H   0  0  0  0  0  0  0  0  0  0  0  0
  -31.2803  -12.1580  -19.5332 H   0  0  0  0  0  0  0  0  0  0  0  0
  -32.4372  -13.2815  -20.2060 H   0  0  0  0  0  0  0  0  0  0  0  0
  -30.9523  -12.9395  -21.0612 H   0  0  0  0  0  0  0  0  0  0  0  0
  -33.5264   -6.5545  -29.9057 H   0  0  0  0  0  0  0  0  0  0  0  0
  -33.0750   -8.2383  -30.0248 H   0  0  0  0  0  0  0  0  0  0  0  0
  -32.7072   -7.3356  -28.5747 H   0  0  0  0  0  0  0  0  0  0  0  0
  -35.5400   -8.4715  -25.0956 H   0  0  0  0  0  0  0  0  0  0  0  0
  -28.8346  -16.4625  -26.8038 H   0  0  0  0  0  0  0  0  0  0  0  0
  -28.5576   -6.5497  -31.0403 H   0  0  0  0  0  0  0  0  0  0  0  0
  1  2  1  0
  2  3  1  0
  3  4  1  0
  4  5  1  0
  5  6  1  0
  7  8  1  0
  8  9  1  0
  9 10  1  0
 10 11  1  0
 11 12  1  0
 12 13  1  0
 13 14  1  0
 14 15  1  0
 15 16  1  0
 16 17  1  0
 17 18  1  0
 18 19  2  0
 19 20  1  0
 20 21  1  0
 21 22  1  0
 22 23  1  0
 23 24  1  0
 24 25  1  0
 25 26  1  0
 26 27  2  3
 28 27  1  0
 28 29  1  0
 29 30  1  0
 30 31  1  0
 31 32  1  0
 28 33  1  0
 32 33  1  0
 10 34  1  0
 16 35  1  0
 18 36  1  0
 20 37  1  0
 37 38  1  0
 38 39  2  3
 24 40  1  0
 26 41  1  0
  2 45  1  0
  6 45  1  0
  7 45  1  0
  1 46  1  0
 25 46  1  0
  1 47  2  0
  7 48  2  0
  8 49  2  0
  9 50  1  0
 13 50  1  0
  9 51  1  6
 12 52  1  0
 42 52  1  0
 14 53  1  0
 43 53  1  0
 21 54  2  0
 23 55  1  0
 30 56  1  0
 44 56  1  0
 31 57  1  0
  2 58  1  1
  3 59  1  0
  3 60  1  0
  4 61  1  0
  4 62  1  0
  5 63  1  0
  5 64  1  0
  6 65  1  0
  6 66  1  0
 10 67  1  1
 11 68  1  0
 11 69  1  0
 12 70  1  1
 13 71  1  6
 14 72  1  6
 15 73  1  0
 15 74  1  0
 16 75  1  1
 17 76  1  0
 17 77  1  0
 19 78  1  0
 20 79  1  1
 22 80  1  0
 22 81  1  0
 23 82  1  1
 24 83  1  6
 25 84  1  1
 27 85  1  0
 28 86  1  6
 29 87  1  0
 29 88  1  0
 30 89  1  6
 31 90  1  1
 32 91  1  0
 32 92  1  0
 33 93  1  0
 33 94  1  0
 34 95  1  0
 34 96  1  0
 34 97  1  0
 35 98  1  0
 35 99  1  0
 35100  1  0
 36101  1  0
 36102  1  0
 36103  1  0
 37104  1  0
 37105  1  0
 38106  1  0
 39107  1  0
 39108  1  0
 40109  1  0
 40110  1  0
 40111  1  0
 41112  1  0
 41113  1  0
 41114  1  0
 42115  1  0
 42116  1  0
 42117  1  0
 43118  1  0
 43119  1  0
 43120  1  0
 44121  1  0
 44122  1  0
 44123  1  0
 51124  1  0
 55125  1  0
 57126  1  0
M  END
