1N46_PFA_A_462
     RDKit          3D

 27 29  0  0  0  0  0  0  0  0999 V2000
   13.6891   -4.0659  -11.0878 O   0  0  0  0  0  0  0  0  0  0  0  0
   14.2486   -4.8259  -10.3551 C   0  0  0  0  0  0  0  0  0  0  0  0
   15.2518   -4.5173   -9.4657 N   0  0  0  0  0  0  0  0  0  0  0  0
   15.8210   -5.4679   -8.6681 C   0  0  0  0  0  0  0  0  0  0  0  0
   16.7144   -5.2454   -7.8816 O   0  0  0  0  0  0  0  0  0  0  0  0
   13.8100   -6.0743  -10.4156 N   0  0  0  0  0  0  0  0  0  0  0  0
   14.3531   -7.0833   -9.5795 N   0  0  0  0  0  0  0  0  0  0  0  0
   15.2903   -6.8292   -8.7381 C   0  0  0  0  0  0  0  0  0  0  0  0
   12.8612   -6.6105  -11.3091 C   0  0  0  0  0  0  0  0  0  0  0  0
   13.4676   -7.3455  -12.4069 C   0  0  0  0  0  0  0  0  0  0  0  0
   12.6136   -7.9084  -13.3929 C   0  0  0  0  0  0  0  0  0  0  0  0
   13.1381   -8.6580  -14.5317 C   0  0  0  0  0  0  0  0  0  0  0  0
   11.4863   -6.4727  -11.2512 C   0  0  0  0  0  0  0  0  0  0  0  0
   10.6260   -7.1035  -12.1702 C   0  0  0  0  0  0  0  0  0  0  0  0
    9.0980   -6.9162  -12.0696 C   0  0  0  0  0  0  0  0  0  0  0  0
   11.1992   -7.8019  -13.2642 C   0  0  0  0  0  0  0  0  0  0  0  0
   10.3083   -8.2982  -14.1920 O   0  0  0  0  0  0  0  0  0  0  0  0
   10.1795   -9.6726  -14.3209 C   0  0  0  0  0  0  0  0  0  0  0  0
   10.6275  -10.5863  -13.2954 C   0  0  0  0  0  0  0  0  0  0  0  0
    9.5703  -10.1270  -15.5458 C   0  0  0  0  0  0  0  0  0  0  0  0
    9.3935  -11.5199  -15.7459 C   0  0  0  0  0  0  0  0  0  0  0  0
    8.7960  -12.0478  -17.0707 C   0  0  1  0  0  0  0  0  0  0  0  0
    7.2430  -12.0326  -16.9267 C   0  0  0  0  0  0  0  0  0  0  0  0
    9.2917  -11.0846  -18.1785 C   0  0  0  0  0  0  0  0  0  0  0  0
    9.8775  -12.4179  -14.7649 C   0  0  0  0  0  0  0  0  0  0  0  0
   10.4309  -11.9513  -13.5466 C   0  0  0  0  0  0  0  0  0  0  0  0
    9.7564  -13.7800  -14.9315 O   0  0  0  0  0  0  0  0  0  0  0  0
  1  2  2  0
  2  3  1  0
  3  4  1  0
  4  5  2  0
  2  6  1  0
  6  7  1  0
  4  8  1  0
  7  8  2  0
  6  9  1  0
  9 10  2  0
 10 11  1  0
 11 12  1  0
  9 13  1  0
 13 14  2  0
 14 15  1  0
 11 16  2  0
 14 16  1  0
 16 17  1  0
 17 18  1  0
 18 19  2  0
 18 20  1  0
 20 21  2  0
 21 22  1  0
 22 23  1  1
 22 24  1  0
 21 25  1  0
 19 26  1  0
 25 26  2  0
 25 27  1  0
M  END
