1OWE_675_A_1001
     RDKit          3D

 22 24  0  0  0  0  0  0  0  0999 V2000
   18.2352   20.9072   34.4958 N   0  0  0  0  0  0  0  0  0  0  0  0
   17.9726   19.7352   34.0138 C   0  0  0  0  0  0  0  0  0  0  0  0
   16.6298   19.3191   33.7475 N   0  0  0  0  0  0  0  0  0  0  0  0
   19.1070   18.8529   33.7527 C   0  0  0  0  0  0  0  0  0  0  0  0
   20.3691   19.1623   34.2628 C   0  0  0  0  0  0  0  0  0  0  0  0
   21.4628   18.3523   34.0362 C   0  0  0  0  0  0  0  0  0  0  0  0
   21.3437   17.1964   33.2894 C   0  0  0  0  0  0  0  0  0  0  0  0
   22.4445   16.3959   33.0705 C   0  0  0  0  0  0  0  0  0  0  0  0
   22.2672   15.2535   32.3174 C   0  0  0  0  0  0  0  0  0  0  0  0
   21.0285   14.9594   31.8227 C   0  0  0  0  0  0  0  0  0  0  0  0
   19.9087   15.7622   32.0381 C   0  0  0  0  0  0  0  0  0  0  0  0
   20.0921   16.9030   32.7918 C   0  0  0  0  0  0  0  0  0  0  0  0
   18.9956   17.7091   33.0153 C   0  0  0  0  0  0  0  0  0  0  0  0
   23.4336   14.4111   32.0893 C   0  0  0  0  0  0  0  0  0  0  0  0
   23.3012   13.3745   31.3871 O   0  0  0  0  0  0  0  0  0  0  0  0
   24.7171   14.6992   32.6196 N   0  0  0  0  0  0  0  0  0  0  0  0
   25.7510   13.7511   32.3478 C   0  0  0  0  0  0  0  0  0  0  0  0
   25.9625   12.6675   33.1875 C   0  0  0  0  0  0  0  0  0  0  0  0
   26.9594   11.7513   32.9273 C   0  0  0  0  0  0  0  0  0  0  0  0
   27.7737   11.9011   31.8110 C   0  0  0  0  0  0  0  0  0  0  0  0
   27.5533   12.9925   30.9740 C   0  0  0  0  0  0  0  0  0  0  0  0
   26.5525   13.9182   31.2292 C   0  0  0  0  0  0  0  0  0  0  0  0
  1  2  2  0
  2  3  1  0
  2  4  1  0
  4  5  2  0
  5  6  1  0
  6  7  2  0
  7  8  1  0
  8  9  2  0
  9 10  1  0
 10 11  2  0
  7 12  1  0
 11 12  1  0
  4 13  1  0
 12 13  2  0
  9 14  1  0
 14 15  2  0
 14 16  1  0
 16 17  1  0
 17 18  2  0
 18 19  1  0
 19 20  2  0
 20 21  1  0
 17 22  1  0
 21 22  2  0
M  END
$$$$
