7NXO_UU8_A_401
     RDKit          3D

 34 37  0  0  0  0  0  0  0  0999 V2000
   25.2929    2.9625   13.2740 N   0  0  0  0  0  0  0  0  0  0  0  0
   25.2352    1.9713   14.2596 C   0  0  0  0  0  0  0  0  0  0  0  0
   26.3516    1.1811   14.5417 C   0  0  0  0  0  0  0  0  0  0  0  0
   27.5317    1.3931   13.8371 C   0  0  0  0  0  0  0  0  0  0  0  0
   27.6069    2.3875   12.8653 N   0  0  0  0  0  0  0  0  0  0  0  0
   26.4868    3.1796   12.5832 C   0  0  0  0  0  0  0  0  0  0  0  0
   24.2190    5.1421   13.3085 C   0  0  0  0  0  0  0  0  0  0  0  0
   23.1040    5.9670   13.0936 C   0  0  0  0  0  0  0  0  0  0  0  0
   21.8661    4.0357   12.3258 C   0  0  0  0  0  0  0  0  0  0  0  0
   20.8070    4.5453    9.7319 C   0  0  0  0  0  0  0  0  0  0  0  0
   19.0930    4.0097    8.1131 C   0  0  0  0  0  0  0  0  0  0  0  0
   19.0828    2.9330   10.2676 C   0  0  0  0  0  0  0  0  0  0  0  0
   18.4345    1.9408   11.2438 C   0  0  0  0  0  0  0  0  0  0  0  0
   18.5172    3.1146    9.0099 C   0  0  0  0  0  0  0  0  0  0  0  0
   20.2320    4.7232    8.4732 C   0  0  0  0  0  0  0  0  0  0  0  0
   20.2266    3.6486   10.6313 C   0  0  0  0  0  0  0  0  0  0  0  0
   20.7299    3.4278   11.8747 O   0  0  0  0  0  0  0  0  0  0  0  0
   22.9764    3.2218   12.5493 C   0  0  0  0  0  0  0  0  0  0  0  0
   21.9276    5.4078   12.6038 C   0  0  0  0  0  0  0  0  0  0  0  0
   20.7883    6.2445   12.3796 C   0  0  0  0  0  0  0  0  0  0  0  0
   19.8620    6.8760   12.1908 N   0  0  0  0  0  0  0  0  0  0  0  0
   25.3609    5.6825   13.7737 F   0  0  0  0  0  0  0  0  0  0  0  0
   24.1600    3.7725   13.0266 C   0  0  0  0  0  0  0  0  0  0  0  0
   24.1922    1.7864   14.8814 O   0  0  0  0  0  0  0  0  0  0  0  0
   26.5501    4.0587   11.7244 O   0  0  0  0  0  0  0  0  0  0  0  0
   28.9815    0.4470   14.1598 S   0  0  1  0  0  0  0  0  0  0  0  0
   28.6009   -0.6043   15.1459 O   0  0  0  0  0  0  0  0  0  0  0  0
   29.4778   -0.0301   12.8343 O   0  0  0  0  0  0  0  0  0  0  0  0
   30.0560    1.5961   14.8396 C   0  0  0  0  0  0  0  0  0  0  0  0
   31.1736    2.0034   14.1226 C   0  0  0  0  0  0  0  0  0  0  0  0
   32.0064    2.9673   14.6714 C   0  0  0  0  0  0  0  0  0  0  0  0
   31.7263    3.5270   15.9174 C   0  0  0  0  0  0  0  0  0  0  0  0
   30.5981    3.1167   16.6153 C   0  0  0  0  0  0  0  0  0  0  0  0
   29.7521    2.1546   16.0763 C   0  0  0  0  0  0  0  0  0  0  0  0
  1  2  1  0
  2  3  1  0
  3  4  2  0
  4  5  1  0
  1  6  1  0
  5  6  1  0
  7  8  2  0
 12 13  1  0
 12 14  1  0
 11 14  2  0
 11 15  1  0
 10 15  2  0
 12 16  2  0
 10 16  1  0
 16 17  1  0
  9 17  1  0
  9 18  1  0
  9 19  2  0
  8 19  1  0
 19 20  1  0
 20 21  3  0
  7 22  1  0
 18 23  2  0
  7 23  1  0
  1 23  1  0
  2 24  2  0
  6 25  2  0
 26  4  1  6
 26 27  2  0
 26 28  2  0
 26 29  1  0
 29 30  2  0
 30 31  1  0
 31 32  2  0
 32 33  1  0
 29 34  1  0
 33 34  2  0
M  END
