1LPZ_CMB_B_301
     RDKit          3D

 32 35  0  0  0  0  0  0  0  0999 V2000
    4.7440    9.0152   26.5791 C   0  0  0  0  0  0  0  0  0  0  0  0
    5.7511    9.0778   25.6100 C   0  0  0  0  0  0  0  0  0  0  0  0
    5.7898    8.1809   24.5514 C   0  0  0  0  0  0  0  0  0  0  0  0
    4.7894    7.2395   24.5176 C   0  0  0  0  0  0  0  0  0  0  0  0
    3.7840    7.1628   25.4689 C   0  0  0  0  0  0  0  0  0  0  0  0
    3.7545    8.0588   26.5157 C   0  0  0  0  0  0  0  0  0  0  0  0
    6.6365    8.0080   23.4942 N   0  0  0  0  0  0  0  0  0  0  0  0
    6.1501    6.9543   22.8164 C   0  0  0  0  0  0  0  0  0  0  0  0
    5.0084    6.4638   23.4296 C   0  0  0  0  0  0  0  0  0  0  0  0
    2.7093    6.1420   25.4214 C   0  0  0  0  0  0  0  0  0  0  0  0
    6.7180    6.3388   21.6227 C   0  0  0  0  0  0  0  0  0  0  0  0
    5.8935    5.6297   20.6930 N   0  0  0  0  0  0  0  0  0  0  0  0
    6.3536    5.0495   19.4760 C   0  0  0  0  0  0  0  0  0  0  0  0
    6.9830    3.7372   19.5738 C   0  0  0  0  0  0  0  0  0  0  0  0
    7.7649    8.8420   23.2478 C   0  0  0  0  0  0  0  0  0  0  0  0
    8.8973    8.6868   24.1965 C   0  0  0  0  0  0  0  0  0  0  0  0
    9.9763    9.5671   24.2206 C   0  0  0  0  0  0  0  0  0  0  0  0
   11.0251    9.4374   25.1079 C   0  0  0  0  0  0  0  0  0  0  0  0
   11.0604    8.4174   26.0282 C   0  0  0  0  0  0  0  0  0  0  0  0
   10.0071    7.5324   26.0275 C   0  0  0  0  0  0  0  0  0  0  0  0
    8.9536    7.6635   25.1358 C   0  0  0  0  0  0  0  0  0  0  0  0
    6.4760    2.8564   20.5393 C   0  0  0  0  0  0  0  0  0  0  0  0
    6.9733    1.6020   20.7286 C   0  0  0  0  0  0  0  0  0  0  0  0
    8.0189    1.1439   19.9575 C   0  0  0  0  0  0  0  0  0  0  0  0
    8.5353    2.0004   18.9957 C   0  0  0  0  0  0  0  0  0  0  0  0
    8.0172    3.2710   18.8179 C   0  0  0  0  0  0  0  0  0  0  0  0
   10.0362    6.4391   27.0078 C   0  0  0  0  0  0  0  0  0  0  0  0
    9.0636    5.6069   27.1539 N   0  0  0  0  0  0  0  0  0  0  0  0
    6.3002    0.5594   21.9425 Cl  0  0  0  0  0  0  0  0  0  0  0  0
    9.8682    1.4726   17.9827 Cl  0  0  0  0  0  0  0  0  0  0  0  0
    7.9411    6.3884   21.3362 O   0  0  0  0  0  0  0  0  0  0  0  0
   11.2344    6.3601   27.8006 N   0  0  0  0  0  0  0  0  0  0  0  0
  1  2  2  0
  2  3  1  0
  3  4  2  0
  4  5  1  0
  1  6  1  0
  5  6  2  0
  3  7  1  0
  7  8  1  0
  4  9  1  0
  8  9  2  0
 10  5  1  1
  8 11  1  0
 11 12  1  0
 13 12  1  1
 13 14  1  0
 15  7  1  6
 15 16  1  0
 16 17  2  0
 17 18  1  0
 18 19  2  0
 19 20  1  0
 16 21  1  0
 20 21  2  0
 14 22  2  0
 22 23  1  0
 23 24  2  0
 24 25  1  0
 14 26  1  0
 25 26  2  0
 20 27  1  0
 27 28  2  0
 23 29  1  0
 25 30  1  0
 11 31  2  0
 27 32  1  0
M  END
$$$$
