
     RDKit          3D

 45 50  0  0  0  0  0  0  0  0999 V2000
   -4.9683   -2.8666   21.5044 S   0  0  0  0  0  0  0  0  0  0  0  0
   -4.8165   -0.3739   25.8599 C   0  0  0  0  0  0  0  0  0  0  0  0
   -5.2592    1.5204   27.2791 C   0  0  0  0  0  0  0  0  0  0  0  0
    0.7746    6.1767   17.6674 C   0  0  0  0  0  0  0  0  0  0  0  0
   -1.6697    6.1650   25.4895 O   0  0  0  0  0  0  0  0  0  0  0  0
   -2.3724    6.2516   24.3396 C   0  0  0  0  0  0  0  0  0  0  0  0
   -2.6491    7.3400   23.8649 O   0  0  0  0  0  0  0  0  0  0  0  0
   -2.6549    4.9195   23.7314 C   0  0  0  0  0  0  0  0  0  0  0  0
   -2.3388    4.6345   22.4007 C   0  0  0  0  0  0  0  0  0  0  0  0
   -1.6913    5.5826   21.6626 O   0  0  0  0  0  0  0  0  0  0  0  0
   -0.4351    5.2628   21.0605 C   0  0  0  0  0  0  0  0  0  0  0  0
   -0.0376    6.3411   20.0520 C   0  0  0  0  0  0  0  0  0  0  0  0
   -0.1967    5.8707   18.6302 C   0  0  0  0  0  0  0  0  0  0  0  0
   -1.3049    5.0979   18.2583 C   0  0  0  0  0  0  0  0  0  0  0  0
   -1.4421    4.6461   16.9450 C   0  0  0  0  0  0  0  0  0  0  0  0
   -0.4731    4.9598   15.9938 C   0  0  0  0  0  0  0  0  0  0  0  0
    0.6348    5.7247   16.3544 C   0  0  0  0  0  0  0  0  0  0  0  0
   -2.6676    3.3602   21.9474 C   0  0  0  0  0  0  0  0  0  0  0  0
   -3.2701    2.4393   22.8116 C   0  0  0  0  0  0  0  0  0  0  0  0
   -3.2247    4.0267   24.5933 N   0  0  0  0  0  0  0  0  0  0  0  0
   -3.5272    2.7901   24.1356 C   0  0  0  0  0  0  0  0  0  0  0  0
   -4.1419    1.8723   25.1233 C   0  0  0  0  0  0  0  0  0  0  0  0
   -4.6717    2.3644   26.3303 C   0  0  0  0  0  0  0  0  0  0  0  0
   -5.3278    0.1419   27.0571 C   0  0  0  0  0  0  0  0  0  0  0  0
   -5.9774   -0.7480   28.0794 C   0  0  0  0  0  0  0  0  0  0  0  0
   -5.3716   -2.1424   28.0354 C   0  0  0  0  0  0  0  0  0  0  0  0
   -5.4931   -2.7411   26.6428 C   0  0  0  0  0  0  0  0  0  0  0  0
   -4.2233    0.4837   24.9157 C   0  0  0  0  0  0  0  0  0  0  0  0
   -4.9176   -1.8377   25.5608 C   0  0  0  0  0  0  0  0  0  0  0  0
   -4.5456   -2.2575   24.3863 N   0  0  0  0  0  0  0  0  0  0  0  0
   -4.7057   -3.5703   24.0681 N   0  0  0  0  0  0  0  0  0  0  0  0
   -4.7736   -4.0110   22.7843 C   0  0  0  0  0  0  0  0  0  0  0  0
   -4.7042   -5.2645   22.3898 N   0  0  0  0  0  0  0  0  0  0  0  0
   -4.9478   -4.1358   20.3588 C   0  0  0  0  0  0  0  0  0  0  0  0
   -4.8025   -5.3501   20.9998 C   0  0  0  0  0  0  0  0  0  0  0  0
   -4.7540   -6.6449   20.3181 C   0  0  0  0  0  0  0  0  0  0  0  0
   -5.6765   -7.0793   19.6364 O   0  0  0  0  0  0  0  0  0  0  0  0
   -3.5708   -7.3082   20.5358 N   0  0  0  0  0  0  0  0  0  0  0  0
   -3.4695   -8.7426   20.5195 C   0  0  0  0  0  0  0  0  0  0  0  0
   -2.4167   -9.2037   19.5462 C   0  0  0  0  0  0  0  0  0  0  0  0
   -1.0734   -8.8406   19.7179 C   0  0  0  0  0  0  0  0  0  0  0  0
   -0.1003   -9.2858   18.8208 C   0  0  0  0  0  0  0  0  0  0  0  0
   -2.7629  -10.0362   18.4720 C   0  0  0  0  0  0  0  0  0  0  0  0
   -1.7890  -10.4810   17.5770 C   0  0  0  0  0  0  0  0  0  0  0  0
   -0.4587  -10.1040   17.7506 C   0  0  0  0  0  0  0  0  0  0  0  0
  5  6  1  0
  6  7  2  0
  6  8  1  0
  8  9  4  0
  9 10  1  0
 10 11  1  0
 11 12  1  0
  4 13  4  0
 12 13  1  0
 13 14  4  0
 14 15  4  0
 15 16  4  0
 16 17  4  0
  4 17  4  0
  9 18  4  0
 18 19  4  0
  8 20  4  0
 19 21  4  0
 20 21  4  0
 21 22  1  0
 22 23  4  0
  3 23  4  0
  2 24  4  0
  3 24  4  0
 24 25  1  0
 25 26  1  0
 26 27  1  0
 22 28  4  0
  2 28  4  0
  2 29  1  0
 27 29  1  0
 29 30  2  0
 30 31  1  0
  1 32  4  0
 31 32  1  0
 32 33  4  0
  1 34  4  0
 34 35  4  0
 33 35  4  0
 35 36  1  0
 36 37  2  0
 36 38  1  0
 38 39  1  0
 39 40  1  0
 40 41  4  0
 41 42  4  0
 40 43  4  0
 43 44  4  0
 42 45  4  0
 44 45  4  0
M  END
