
     RDKit          3D

 10 10  0  0  0  0  0  0  0  0999 V2000
  -16.9181    1.7160   88.1069 O   0  0  0  0  0  0  0  0  0  0  0  0
  -16.9649    0.3057   88.3705 C   0  0  1  0  0  0  0  0  0  0  0  0
  -17.9405   -0.3356   87.3730 C   0  0  2  0  0  0  0  0  0  0  0  0
  -19.2490    0.2061   87.5847 O   0  0  0  0  0  0  0  0  0  0  0  0
  -17.9615   -1.8564   87.5555 C   0  0  0  0  0  0  0  0  0  0  0  0
  -16.6222   -2.4491   87.4606 N   0  0  0  0  0  0  0  0  0  0  0  0
  -15.7036   -1.8530   88.4359 C   0  0  0  0  0  0  0  0  0  0  0  0
  -15.5765   -0.3338   88.2378 C   0  0  2  0  0  0  0  0  0  0  0  0
  -14.5571    0.2616   89.2119 C   0  0  0  0  0  0  0  0  0  0  0  0
  -14.6343   -0.3769   90.4789 O   0  0  0  0  0  0  0  0  0  0  0  0
  2  1  1  6
  2  3  1  0
  3  4  1  1
  3  5  1  0
  5  6  1  0
  6  7  1  0
  2  8  1  0
  7  8  1  0
  8  9  1  1
  9 10  1  0
M  END
