7MY1_IPE_AAA_401
     RDKit          3D

 14 13  0  0  0  0  0  0  0  0999 V2000
   10.1860    8.1543   17.5958 C   0  0  0  0  0  0  0  0  0  0  0  0
   10.5046    9.2454   16.7939 O   0  0  0  0  0  0  0  0  0  0  0  0
    9.9498    6.9306   16.7567 C   0  0  0  0  0  0  0  0  0  0  0  0
    9.6491    5.7237   17.5518 C   0  0  0  0  0  0  0  0  0  0  0  0
    9.9352    4.4891   17.2029 C   0  0  0  0  0  0  0  0  0  0  0  0
    8.9606    5.9220   18.8654 C   0  0  0  0  0  0  0  0  0  0  0  0
   10.6717   10.6615   17.6975 P   0  0  1  0  0  0  0  0  0  0  0  0
   11.8231   10.5504   18.6877 O   0  0  0  0  0  0  0  0  0  0  0  0
   11.0249   11.9618   16.6808 O   0  0  0  0  0  0  0  0  0  0  0  0
    9.2677   11.0526   18.5561 O   0  0  0  0  0  0  0  0  0  0  0  0
    8.7544   12.6035   18.1347 P   0  0  1  0  0  0  0  0  0  0  0  0
    8.3973   13.4575   19.5486 O   0  0  0  0  0  0  0  0  0  0  0  0
    9.8821   13.3380   17.4187 O   0  0  0  0  0  0  0  0  0  0  0  0
    7.3921   12.6059   17.1537 O   0  0  0  0  0  0  0  0  0  0  0  0
  1  2  1  0
  1  3  1  0
  3  4  1  0
  4  5  2  0
  4  6  1  0
  2  7  1  0
  7  8  2  0
  7  9  1  6
  7 10  1  0
 10 11  1  0
 11 12  1  1
 11 13  2  0
 11 14  1  0
M  END
$$$$
