6Z14_Q4Z_JJJ_1103
     RDKit          3D

 18 19  0  0  0  0  0  0  0  0999 V2000
   17.1176    6.4476   13.0579 O   0  0  0  0  0  0  0  0  0  0  0  0
   17.5256    4.7232   14.6188 O   0  0  0  0  0  0  0  0  0  0  0  0
   17.8860    5.2562   13.3497 S   0  0  1  0  0  0  0  0  0  0  0  0
   17.9021    4.3296   12.2420 O   0  0  0  0  0  0  0  0  0  0  0  0
   19.9067    9.2797   11.8529 C   0  0  1  0  0  0  0  0  0  0  0  0
   20.2063   10.5309   12.5796 C   0  0  1  0  0  0  0  0  0  0  0  0
   21.0620   10.2507   13.8083 C   0  0  2  0  0  0  0  0  0  0  0  0
   20.4580    9.1083   14.6027 C   0  0  1  0  0  0  0  0  0  0  0  0
   20.3916    7.8444   13.7523 C   0  0  1  0  0  0  0  0  0  0  0  0
   19.7065    6.7147   14.4840 C   0  0  0  0  0  0  0  0  0  0  0  0
   21.5809   10.4187   10.6982 C   0  0  0  0  0  0  0  0  0  0  0  0
   22.5884   10.7478    9.6552 C   0  0  0  0  0  0  0  0  0  0  0  0
   21.0386   11.3011   11.6185 N   0  0  0  0  0  0  0  0  0  0  0  0
   21.0151    9.1396   10.9027 O   0  0  0  0  0  0  0  0  0  0  0  0
   21.1185   11.4041   14.6271 O   0  0  0  0  0  0  0  0  0  0  0  0
   21.3327    8.8517   15.6977 O   0  0  0  0  0  0  0  0  0  0  0  0
   19.6753    8.0449   12.5129 O   0  0  0  0  0  0  0  0  0  0  0  0
   19.3865    5.7139   13.4884 O   0  0  0  0  0  0  0  0  0  0  0  0
  2  3  2  0
  1  3  2  0
  3  4  1  6
  5  6  1  0
  6  7  1  0
  7  8  1  0
  8  9  1  0
  9 10  1  1
 11 12  1  0
  6 13  1  6
 11 13  2  0
 11 14  1  0
  5 14  1  6
  7 15  1  1
  8 16  1  1
  9 17  1  0
  5 17  1  0
 10 18  1  0
  3 18  1  0
M  CHG  2   4  -1  13   1
M  END
