7X9K_8OG_A_202
     RDKit          3D

 38 40  0  0  0  0  0  0  0  0999 V2000
    1.4574    1.5028    9.0852 O   0  0  0  0  0  0  0  0  0  0  0  0
    0.2810    2.2104    8.0941 P   0  0  1  0  0  5  0  0  0  0  0  0
   -0.0033    3.6156    8.5755 O   0  0  0  0  0  0  0  0  0  0  0  0
    0.8639    2.2819    6.5077 O   0  0  0  0  0  0  0  0  0  0  0  0
   -1.1509    1.2834    8.1173 O   0  0  0  0  0  0  0  0  0  0  0  0
   -2.2430    2.1555    8.2904 C   0  0  0  0  0  0  0  0  0  0  0  0
   -1.8200    3.5720    7.8931 C   0  0  1  0  0  0  0  0  0  0  0  0
   -2.9133    4.4514    8.0093 O   0  0  0  0  0  0  0  0  0  0  0  0
   -0.7020    4.1030    8.7846 C   0  0  1  0  0  0  0  0  0  0  0  0
    0.5787    3.7380    8.3285 O   0  0  0  0  0  0  0  0  0  0  0  0
   -0.9272    5.5920    8.7554 C   0  0  0  0  0  0  0  0  0  0  0  0
   -2.3969    5.7212    8.3533 C   0  0  2  0  0  0  0  0  0  0  0  0
   -3.1835    6.2959    9.4487 N   0  0  0  0  0  4  0  0  0  0  0  0
   -3.2150    5.9316   10.7599 C   0  0  0  0  0  0  0  0  0  0  0  0
   -3.9818    6.7456   11.5288 N   0  0  0  0  0  4  0  0  0  0  0  0
   -4.4310    7.6656   10.6576 C   0  0  0  0  0  0  0  0  0  0  0  0
   -5.2324    8.7779   10.8679 C   0  0  0  0  0  0  0  0  0  0  0  0
   -5.6874    9.0488   12.0110 O   0  0  0  0  0  0  0  0  0  0  0  0
   -5.5119    9.5767    9.7929 N   0  0  0  0  0  4  0  0  0  0  0  0
   -5.0079    9.2917    8.5438 C   0  0  0  0  0  0  0  0  0  0  0  0
   -5.3080   10.1435    7.4385 N   0  0  0  0  0  0  0  0  0  0  0  0
   -4.2138    8.1931    8.3526 N   0  0  0  0  0  0  0  0  0  0  0  0
   -3.9489    7.4005    9.4185 C   0  0  0  0  0  0  0  0  0  0  0  0
   -2.5838    4.9454   11.2249 O   0  0  0  0  0  0  0  0  0  0  0  0
    1.5535    0.5787    8.7417 H   0  0  0  0  0  0  0  0  0  0  0  0
    0.9743    1.3356    6.2373 H   0  0  0  0  0  0  0  0  0  0  0  0
   -2.5630    2.1732    9.3574 H   0  0  0  0  0  0  0  0  0  0  0  0
   -3.0994    1.8472    7.6481 H   0  0  0  0  0  0  0  0  0  0  0  0
   -1.4931    3.5606    6.8281 H   0  0  0  0  0  0  0  0  0  0  0  0
   -0.8310    3.7423    9.8298 H   0  0  0  0  0  0  0  0  0  0  0  0
    0.6813    4.0614    7.3951 H   0  0  0  0  0  0  0  0  0  0  0  0
   -0.2863    6.0832    7.9899 H   0  0  0  0  0  0  0  0  0  0  0  0
   -0.7109    6.0478    9.7471 H   0  0  0  0  0  0  0  0  0  0  0  0
   -2.4778    6.3801    7.4600 H   0  0  0  0  0  0  0  0  0  0  0  0
   -4.1593    6.6851   12.5563 H   0  0  0  0  0  0  0  0  0  0  0  0
   -6.1151   10.4199    9.9258 H   0  0  0  0  0  0  0  0  0  0  0  0
   -5.9114   10.9864    7.5628 H   0  0  0  0  0  0  0  0  0  0  0  0
   -4.9254    9.9308    6.4905 H   0  0  0  0  0  0  0  0  0  0  0  0
  2  1  1  1
  2  3  2  0
  2  4  1  0
  2  5  1  0
  5  6  1  0
  7  6  1  0
  7  8  1  0
  7  9  1  0
  9 10  1  0
  9 11  1  0
  8 12  1  0
 11 12  1  0
 12 13  1  0
 13 14  4  0
 14 15  4  0
 15 16  4  0
 16 17  4  0
 17 18  2  0
 17 19  4  0
 19 20  4  0
 20 21  1  0
 20 22  4  0
 13 23  4  0
 16 23  4  0
 22 23  4  0
 14 24  2  0
  1 25  1  0
  4 26  1  0
  6 27  1  0
  6 28  1  0
  7 29  1  6
  9 30  1  1
 10 31  1  0
 11 32  1  0
 11 33  1  0
 12 34  1  6
 15 35  1  0
 19 36  1  0
 21 37  1  0
 21 38  1  0
M  CHG  3  13   1  15   1  19   1
M  END
