7RUI_7QZ_A_201
     RDKit          3D

 51 56  0  0  0  0  0  0  0  0999 V2000
   10.4969   15.3908   -0.6288 C   0  0  0  0  0  0  0  0  0  0  0  0
   13.4711   15.3546    3.2078 C   0  0  0  0  0  0  0  0  0  0  0  0
   13.5743   15.4743    4.5889 C   0  0  0  0  0  0  0  0  0  0  0  0
   14.8090   15.7746    5.1522 C   0  0  0  0  0  0  0  0  0  0  0  0
   15.8749   15.9380    4.2862 C   0  0  0  0  0  0  0  0  0  0  0  0
   15.7725   15.8195    2.9205 C   0  0  0  0  0  0  0  0  0  0  0  0
   14.5465   15.5215    2.3631 C   0  0  0  0  0  0  0  0  0  0  0  0
   17.8330   16.2864    3.3676 C   0  0  0  0  0  0  0  0  0  0  0  0
   17.1735   16.2317    4.5629 C   0  0  0  0  0  0  0  0  0  0  0  0
   17.3517   16.0145    0.9510 C   0  0  1  0  0  0  0  0  0  0  0  0
   18.7569   16.6101    0.8105 C   0  0  0  0  0  0  0  0  0  0  0  0
   17.4581   14.6383    0.3990 C   0  0  0  0  0  0  0  0  0  0  0  0
   17.7710   13.0845   -1.3453 C   0  0  0  0  0  0  0  0  0  0  0  0
    9.7794   14.4320    1.5042 C   0  0  0  0  0  0  0  0  0  0  0  0
    9.9596   14.0886    2.8155 C   0  0  0  0  0  0  0  0  0  0  0  0
   11.2257   14.4225    3.3370 C   0  0  0  0  0  0  0  0  0  0  0  0
   12.1864   15.0414    2.5784 C   0  0  0  0  0  0  0  0  0  0  0  0
   11.9481   15.3642    1.2618 C   0  0  0  0  0  0  0  0  0  0  0  0
   10.7491   15.0497    0.7611 N   0  0  0  0  0  0  0  0  0  0  0  0
   16.9724   16.0317    2.3362 N   0  0  0  0  0  0  0  0  0  0  0  0
   17.6854   14.3692   -0.8930 N   0  0  0  0  0  0  0  0  0  0  0  0
   17.6262   12.0033   -0.4861 C   0  0  0  0  0  0  0  0  0  0  0  0
   17.3916   12.2971    0.8459 C   0  0  0  0  0  0  0  0  0  0  0  0
   17.3080   13.5967    1.2869 C   0  0  0  0  0  0  0  0  0  0  0  0
   16.4498   16.8735    0.1202 C   0  0  0  0  0  0  0  0  0  0  0  0
   15.7677   16.3597   -0.9818 C   0  0  0  0  0  0  0  0  0  0  0  0
   14.9389   17.1608   -1.7383 C   0  0  0  0  0  0  0  0  0  0  0  0
   14.7577   18.5004   -1.4273 C   0  0  0  0  0  0  0  0  0  0  0  0
   15.4604   18.9701   -0.3159 C   0  0  0  0  0  0  0  0  0  0  0  0
   16.2657   18.1744    0.4117 N   0  0  0  0  0  0  0  0  0  0  0  0
   15.0134   15.8893    6.5518 N   0  0  0  0  0  0  0  0  0  0  0  0
   13.8894   16.4644    7.6805 S   0  0  2  0  0  0  0  0  0  0  0  0
   13.8581   15.6091    9.2234 C   0  0  0  0  0  0  0  0  0  0  0  0
   13.8522   14.1245    9.1474 C   0  0  1  0  0  0  0  0  0  0  0  0
   13.0320   13.7295    8.1101 F   0  0  0  0  0  0  0  0  0  0  0  0
   15.1488   13.7593    8.6949 F   0  0  0  0  0  0  0  0  0  0  0  0
   13.6198   13.4997   10.3329 F   0  0  0  0  0  0  0  0  0  0  0  0
   12.4916   16.2737    7.0908 O   0  0  0  0  0  0  0  0  0  0  0  0
   14.1097   17.9277    7.9853 O   0  0  0  0  0  0  0  0  0  0  0  0
    9.0597   13.4922    3.6917 N   0  0  0  0  0  0  0  0  0  0  0  0
    9.2485   12.4139    4.5887 C   0  0  0  0  0  0  0  0  0  0  0  0
    8.1513   11.7906    5.2280 N   0  0  0  0  0  0  0  0  0  0  0  0
    8.1380   10.8736    6.2812 C   0  0  0  0  0  0  0  0  0  0  0  0
    9.3785   10.4650    6.7810 C   0  0  0  0  0  0  0  0  0  0  0  0
    9.4986    9.5677    7.8150 C   0  0  0  0  0  0  0  0  0  0  0  0
    8.3974    9.0143    8.4246 C   0  0  0  0  0  0  0  0  0  0  0  0
    7.1663    9.3988    7.9530 C   0  0  0  0  0  0  0  0  0  0  0  0
    7.0499   10.3148    6.8974 C   0  0  0  0  0  0  0  0  0  0  0  0
    5.7844   10.5965    6.5406 F   0  0  0  0  0  0  0  0  0  0  0  0
   10.3779   12.0168    4.8129 O   0  0  0  0  0  0  0  0  0  0  0  0
    8.7182   14.2039    0.8943 O   0  0  0  0  0  0  0  0  0  0  0  0
  2  3  2  0
  3  4  1  0
  4  5  2  0
  5  6  1  0
  6  7  2  0
  2  7  1  0
  8  9  2  0
  5  9  1  0
 10 11  1  1
 10 12  1  0
 14 15  1  0
 15 16  2  0
 16 17  1  0
  2 17  1  0
 17 18  2  0
 14 19  1  0
 18 19  1  0
  1 19  1  0
 10 20  1  0
  8 20  1  0
  6 20  1  0
 12 21  1  0
 13 21  2  0
 13 22  1  0
 22 23  2  0
 23 24  1  0
 12 24  2  0
 10 25  1  0
 25 26  2  0
 26 27  1  0
 27 28  2  0
 28 29  1  0
 29 30  2  0
 25 30  1  0
  4 31  1  0
 31 32  1  0
 32 33  1  1
 33 34  1  0
 34 35  1  6
 34 36  1  0
 34 37  1  0
 32 38  2  0
 32 39  2  0
 15 40  1  0
 40 41  1  0
 41 42  1  0
 42 43  1  0
 43 44  2  0
 44 45  1  0
 45 46  2  0
 46 47  1  0
 47 48  2  0
 43 48  1  0
 48 49  1  0
 41 50  2  0
 14 51  2  0
M  END
$$$$
