7MAE_XUS_A_101
     RDKit          3D

 49 52  0  0  0  0  0  0  0  0999 V2000
   20.5794   -0.9415   15.7597 C   0  0  1  0  0  0  0  0  0  0  0  0
   19.8906   -0.6229   16.9916 C   0  0  2  0  0  0  0  0  0  0  0  0
   21.7136    0.4987   18.2862 C   0  0  0  0  0  0  0  0  0  0  0  0
   23.6844    1.0502   19.5678 C   0  0  1  0  0  0  0  0  0  0  0  0
   24.2821    2.2337   18.8908 C   0  0  0  0  0  0  0  0  0  0  0  0
   23.5371    2.9681   20.8825 C   0  0  1  0  0  0  0  0  0  0  0  0
   21.4781    3.6063   20.4769 C   0  0  0  0  0  0  0  0  0  0  0  0
   18.8471    0.4565   16.9703 C   0  0  0  0  0  0  0  0  0  0  0  0
   15.3257   -5.7934   13.1833 C   0  0  0  0  0  0  0  0  0  0  0  0
   15.1802   -4.4573   13.4949 C   0  0  0  0  0  0  0  0  0  0  0  0
   16.0869   -3.7507   14.2574 C   0  0  0  0  0  0  0  0  0  0  0  0
   17.2105   -4.3537   14.7596 C   0  0  0  0  0  0  0  0  0  0  0  0
   17.3734   -5.7043   14.4546 C   0  0  0  0  0  0  0  0  0  0  0  0
   16.4709   -6.4110   13.6946 C   0  0  0  0  0  0  0  0  0  0  0  0
   20.9427   -3.9385   15.0872 C   0  0  0  0  0  0  0  0  0  0  0  0
   20.0615   -1.7430   14.6586 C   0  0  0  0  0  0  0  0  0  0  0  0
   22.7821    1.6580   20.6176 C   0  0  1  0  0  0  0  0  0  0  0  0
   21.4775    2.1368   20.0731 C   0  0  0  0  0  0  0  0  0  0  0  0
   18.6556    0.8783   18.3934 C   0  0  0  0  0  0  0  0  0  0  0  0
   18.0970    0.0345   19.3159 C   0  0  0  0  0  0  0  0  0  0  0  0
   17.9230    0.4232   20.6315 C   0  0  0  0  0  0  0  0  0  0  0  0
   18.3038    1.6817   21.0801 C   0  0  0  0  0  0  0  0  0  0  0  0
   18.8619    2.5272   20.1612 C   0  0  0  0  0  0  0  0  0  0  0  0
   19.0356    2.1365   18.8436 C   0  0  0  0  0  0  0  0  0  0  0  0
   22.3843   -5.9926   14.0859 C   0  0  0  0  0  0  0  0  0  0  0  0
   22.2922   -3.5424   14.6918 C   0  0  2  0  0  0  0  0  0  0  0  0
   22.7670   -4.6104   13.6750 C   0  0  0  0  0  0  0  0  0  0  0  0
   23.3511   -3.4344   15.7232 C   0  0  0  0  0  0  0  0  0  0  0  0
   18.7404    1.3811   23.4872 C   0  0  0  0  0  0  0  0  0  0  0  0
   17.7269    4.6329   25.7011 C   0  0  0  0  0  0  0  0  0  0  0  0
   19.0381    0.6304   26.2318 C   0  0  0  0  0  0  0  0  0  0  0  0
   16.6967    5.6833   25.3738 C   0  0  0  0  0  0  0  0  0  0  0  0
   19.3558    0.0070   27.5730 C   0  0  0  0  0  0  0  0  0  0  0  0
   19.8169   -3.1252   14.8387 N   0  0  0  0  0  0  0  0  0  0  0  0
   20.6679   -0.4779   18.1997 N   0  0  0  0  0  0  0  0  0  0  0  0
   14.3760   -6.4940   12.3938 N   0  0  0  0  0  0  0  0  0  0  0  0
   18.8212   -4.5323   16.8013 O   0  0  0  0  0  0  0  0  0  0  0  0
   17.7569   -2.3649   16.3766 O   0  0  0  0  0  0  0  0  0  0  0  0
   21.0596    0.2840   15.2113 O   0  0  0  0  0  0  0  0  0  0  0  0
   21.5004    1.7209   17.9734 O   0  0  0  0  0  0  0  0  0  0  0  0
   22.9958    0.1611   18.7090 O   0  0  0  0  0  0  0  0  0  0  0  0
   23.9351    3.3705   19.6302 O   0  0  0  0  0  0  0  0  0  0  0  0
   22.5127    3.7685   21.3858 O   0  0  0  0  0  0  0  0  0  0  0  0
   18.0872    1.9656   22.4037 O   0  0  0  0  0  0  0  0  0  0  0  0
   17.6177    3.6089   24.7901 O   0  0  0  0  0  0  0  0  0  0  0  0
   19.3879    1.9668   26.1778 O   0  0  0  0  0  0  0  0  0  0  0  0
   20.1902    3.5584   24.2384 O   0  0  0  0  0  0  0  0  0  0  0  0
   19.0466    2.7023   24.7178 P   0  0  1  0  0  5  0  0  0  0  0  0
   18.4177   -3.5472   15.7317 S   0  0  2  0  0  6  0  0  0  0  0  0
  1  2  1  0
  4  5  1  0
  2  8  1  0
  9 10  2  0
 10 11  1  0
 11 12  2  0
 12 13  1  0
  9 14  1  0
 13 14  2  0
  1 16  1  0
  4 17  1  0
 17  6  1  6
 18  7  1  6
 17 18  1  0
  8 19  1  6
 19 20  2  0
 20 21  1  0
 21 22  2  0
 22 23  1  0
 19 24  1  0
 23 24  2  0
 15 26  1  0
 26 27  1  0
 27 25  1  1
 26 28  1  1
 32 30  1  6
 33 31  1  6
 15 34  1  1
 16 34  1  1
  2 35  1  1
  3 35  1  0
  9 36  1  0
  1 39  1  6
  3 40  2  0
  3 41  1  0
  4 41  1  6
  5 42  1  6
  6 42  1  6
  7 43  1  1
  6 43  1  0
 22 44  1  0
 29 44  1  1
 30 45  1  6
 31 46  1  1
 29 48  1  0
 47 48  2  0
 48 45  1  1
 46 48  1  0
 12 49  1  0
 49 34  1  6
 37 49  2  0
 38 49  2  0
M  END
$$$$
