8H0M_2EH_A_405
     RDKit          3D

  9  8  0  0  0  0  0  0  0  0999 V2000
   34.3220   35.2330   11.7828 C   0  0  0  0  0  0  0  0  0  0  0  0
   32.3475   36.6337   11.5931 C   0  0  0  0  0  0  0  0  0  0  0  0
   32.7181   38.0729   11.8013 C   0  0  0  0  0  0  0  0  0  0  0  0
   31.4341   34.4972   14.1469 C   0  0  0  0  0  0  0  0  0  0  0  0
   33.0091   35.6893   12.5206 C   0  0  1  0  0  0  0  0  0  0  0  0
   33.9985   34.8189   10.5085 O   0  0  0  0  0  0  0  0  0  0  0  0
   32.2925   34.4699   12.9464 C   0  0  0  0  0  0  0  0  0  0  0  0
   30.6635   33.1833   14.3101 C   0  0  0  0  0  0  0  0  0  0  0  0
   29.5746   33.0584   13.2853 C   0  0  0  0  0  0  0  0  0  0  0  0
  2  3  1  0
  5  1  1  6
  2  5  1  0
  1  6  1  0
  4  7  1  0
  5  7  1  0
  4  8  1  0
  8  9  1  0
M  END
$$$$
