
     RDKit          3D

 28 30  0  0  0  0  0  0  0  0999 V2000
    5.1889   -5.1559   26.1977 P   0  0  2  0  0  5  0  0  0  0  0  0
    4.5186   -5.9170   25.1038 O   0  0  0  0  0  0  0  0  0  0  0  0
    4.8637   -3.5927   26.2206 O   0  0  0  0  0  0  0  0  0  0  0  0
    6.7791   -5.1043   26.0708 O   0  0  0  0  0  0  0  0  0  0  0  0
    4.9154   -5.6286   27.6874 O   0  0  0  0  0  0  0  0  0  0  0  0
    5.4207   -7.0631   28.1483 P   0  0  1  0  0  5  0  0  0  0  0  0
    5.3545   -8.1133   27.0853 O   0  0  0  0  0  0  0  0  0  0  0  0
    6.9000   -6.7522   28.6766 O   0  0  0  0  0  0  0  0  0  0  0  0
    4.6769   -7.4099   29.5204 O   0  0  0  0  0  0  0  0  0  0  0  0
    4.4260   -6.3545   30.4398 C   0  0  0  0  0  0  0  0  0  0  0  0
    4.9593   -6.7596   31.8169 C   0  0  1  0  0  0  0  0  0  0  0  0
    4.2440   -7.9252   32.2912 O   0  0  0  0  0  0  0  0  0  0  0  0
    6.4403   -7.1319   31.7908 C   0  0  1  0  0  0  0  0  0  0  0  0
    7.0439   -6.9135   33.0819 O   0  0  0  0  0  0  0  0  0  0  0  0
    6.4168   -8.6321   31.5506 C   0  0  1  0  0  0  0  0  0  0  0  0
    7.6123   -9.2452   32.0366 O   0  0  0  0  0  0  0  0  0  0  0  0
    5.1683   -9.0348   32.3383 C   0  0  2  0  0  0  0  0  0  0  0  0
    4.5014  -10.2313   31.8676 N   0  0  0  0  0  0  0  0  0  0  0  0
    4.5888  -10.7268   30.5877 C   0  0  0  0  0  0  0  0  0  0  0  0
    3.8704  -11.8194   30.4241 N   0  0  0  0  0  0  0  0  0  0  0  0
    3.2979  -12.0324   31.6512 C   0  0  0  0  0  0  0  0  0  0  0  0
    2.3971  -13.0715   32.1002 C   0  0  0  0  0  0  0  0  0  0  0  0
    1.9914  -14.0138   31.4265 O   0  0  0  0  0  0  0  0  0  0  0  0
    2.0217  -12.9028   33.4256 N   0  0  0  0  0  0  0  0  0  0  0  0
    2.4819  -11.8950   34.2482 C   0  0  0  0  0  0  0  0  0  0  0  0
    2.0296  -11.9185   35.5245 N   0  0  0  0  0  0  0  0  0  0  0  0
    3.3059  -10.9602   33.8598 N   0  0  0  0  0  0  0  0  0  0  0  0
    3.6751  -11.0698   32.5615 C   0  0  0  0  0  0  0  0  0  0  0  0
  1  2  2  0
  1  3  1  1
  1  4  1  0
  1  5  1  0
  6  5  1  0
  6  7  2  0
  6  8  1  1
  6  9  1  0
  9 10  1  0
 11 10  1  6
 11 12  1  0
 11 13  1  0
 13 14  1  1
 13 15  1  0
 15 16  1  1
 12 17  1  0
 15 17  1  0
 17 18  1  6
 18 19  4  0
 19 20  4  0
 20 21  4  0
 21 22  4  0
 22 23  2  0
 22 24  4  0
 24 25  4  0
 25 26  1  0
 25 27  4  0
 18 28  4  0
 21 28  4  0
 27 28  4  0
M  END
