7CNQ_G8X_C_602
     RDKit          3D

 18 18  0  0  0  0  0  0  0  0999 V2000
  -21.1494   33.3737   40.8719 O   0  0  0  0  0  0  0  0  0  0  0  0
  -20.8090   31.8561   37.5659 O   0  0  0  0  0  0  0  0  0  0  0  0
  -18.5497   34.1074   39.3991 N   0  0  0  0  0  0  0  0  0  0  0  0
  -19.9524   32.6536   40.7086 C   0  0  2  0  0  0  0  0  0  0  0  0
  -18.8863   33.2125   41.6270 C   0  0  2  0  0  0  0  0  0  0  0  0
  -18.2165   34.3112   40.8123 C   0  0  2  0  0  0  0  0  0  0  0  0
  -19.3567   32.8872   39.3231 C   0  0  1  0  0  0  0  0  0  0  0  0
  -20.4000   32.9981   38.2471 C   0  0  0  0  0  0  0  0  0  0  0  0
  -20.9372   34.1092   37.9886 O   0  0  0  0  0  0  0  0  0  0  0  0
  -20.9415   34.1358   41.4733 H   0  0  0  0  0  0  0  0  0  0  0  0
  -21.5212   31.2479   37.9521 H   0  0  0  0  0  0  0  0  0  0  0  0
  -17.6662   33.9652   38.8543 H   0  0  0  0  0  0  0  0  0  0  0  0
  -20.1195   31.5657   40.8889 H   0  0  0  0  0  0  0  0  0  0  0  0
  -18.1446   32.4171   41.8621 H   0  0  0  0  0  0  0  0  0  0  0  0
  -19.3105   33.6051   42.5772 H   0  0  0  0  0  0  0  0  0  0  0  0
  -18.6061   35.3023   41.1295 H   0  0  0  0  0  0  0  0  0  0  0  0
  -17.1148   34.2975   40.9730 H   0  0  0  0  0  0  0  0  0  0  0  0
  -18.6948   32.0228   39.0788 H   0  0  0  0  0  0  0  0  0  0  0  0
  4  1  1  0
  4  5  1  0
  5  6  1  0
  3  6  1  0
  4  7  1  0
  3  7  1  0
  7  8  1  0
  2  8  1  0
  8  9  2  0
  1 10  1  0
  2 11  1  0
  3 12  1  0
  4 13  1  1
  5 14  1  1
  5 15  1  0
  6 16  1  1
  6 17  1  0
  7 18  1  6
M  END
