7NML_I7B_B_201
     RDKit          3D

 16 16  0  0  0  0  0  0  0  0999 V2000
   -0.5173  -29.3550  -17.3319 C   0  0  0  0  0  0  0  0  0  0  0  0
   -0.1684  -30.7042  -17.2310 C   0  0  0  0  0  0  0  0  0  0  0  0
    1.1408  -31.0602  -17.3770 C   0  0  0  0  0  0  0  0  0  0  0  0
    2.0980  -30.1080  -17.6190 C   0  0  0  0  0  0  0  0  0  0  0  0
    1.7909  -28.7585  -17.7259 C   0  0  0  0  0  0  0  0  0  0  0  0
    0.4676  -28.3995  -17.5782 C   0  0  0  0  0  0  0  0  0  0  0  0
   -1.3852  -31.9346  -16.9213 S   0  0  1  0  0  0  0  0  0  0  0  0
   -1.7591  -32.8027  -18.3636 N   0  0  0  0  0  0  0  0  0  0  0  0
   -0.9591  -32.8399  -15.8052 O   0  0  0  0  0  0  0  0  0  0  0  0
   -2.6385  -31.2275  -16.4310 O   0  0  0  0  0  0  0  0  0  0  0  0
    0.0855  -26.6970  -17.7138 S   0  0  2  0  0  0  0  0  0  0  0  0
   -1.6130  -26.5152  -17.4554 N   0  0  0  0  0  0  0  0  0  0  0  0
    0.4446  -26.2745  -19.1104 O   0  0  0  0  0  0  0  0  0  0  0  0
    0.8340  -25.8986  -16.7071 O   0  0  0  0  0  0  0  0  0  0  0  0
    1.5498  -32.4297  -17.2824 N   0  0  0  0  0  0  0  0  0  0  0  0
    3.0460  -27.5761  -18.0357 Cl  0  0  0  0  0  0  0  0  0  0  0  0
  1  2  2  0
  2  3  1  0
  3  4  2  0
  4  5  1  0
  1  6  1  0
  5  6  2  0
  2  7  1  0
  7  8  1  6
  7  9  2  0
  7 10  2  0
  6 11  1  0
 11 12  1  1
 11 13  2  0
 11 14  2  0
  3 15  1  0
  5 16  1  0
M  END
$$$$
