7PRM_81I_A_401
     RDKit          3D

 56 60  0  0  0  0  0  0  0  0999 V2000
  128.8728   21.9327   -5.9801 C   0  0  0  0  0  0  0  0  0  0  0  0
  127.6391   22.1571   -6.5656 C   0  0  0  0  0  0  0  0  0  0  0  0
  126.5578   21.3439   -6.2407 C   0  0  0  0  0  0  0  0  0  0  0  0
  125.2707   21.5595   -6.8205 N   0  0  0  0  0  0  0  0  0  0  0  0
  124.6273   22.7489   -6.8278 C   0  0  0  0  0  0  0  0  0  0  0  0
  125.0820   23.7998   -6.3897 O   0  0  0  0  0  0  0  0  0  0  0  0
  123.2631   22.5375   -7.4198 C   0  0  0  0  0  0  0  0  0  0  0  0
  123.0352   21.0284   -7.3083 C   0  0  1  0  0  0  0  0  0  0  0  0
  122.1232   20.4890   -8.3435 N   0  0  0  0  0  0  0  0  0  0  0  0
  120.7602   20.2647   -7.8341 C   0  0  0  0  0  0  0  0  0  0  0  0
  119.8514   19.6334   -8.8975 C   0  0  0  0  0  0  0  0  0  0  0  0
  119.9076   20.3862  -10.1642 N   0  0  0  0  0  0  0  0  0  0  0  0
  118.8722   20.6653  -10.9922 C   0  0  0  0  0  0  0  0  0  0  0  0
  117.8813   21.2826  -10.5996 O   0  0  0  0  0  0  0  0  0  0  0  0
  118.8505   20.2200  -12.4239 C   0  0  0  0  0  0  0  0  0  0  0  0
  119.9662   19.8244  -13.1212 O   0  0  0  0  0  0  0  0  0  0  0  0
  119.5372   19.4965  -14.3923 C   0  0  0  0  0  0  0  0  0  0  0  0
  118.2181   19.5796  -14.4772 C   0  0  0  0  0  0  0  0  0  0  0  0
  117.7485   20.0357  -13.1835 C   0  0  0  0  0  0  0  0  0  0  0  0
  121.2757   20.6647  -10.6236 C   0  0  0  0  0  0  0  0  0  0  0  0
  122.0552   21.3524   -9.5339 C   0  0  0  0  0  0  0  0  0  0  0  0
  124.4623   20.4787   -7.3927 C   0  0  0  0  0  0  0  0  0  0  0  0
  126.7442   20.2907   -5.3487 C   0  0  0  0  0  0  0  0  0  0  0  0
  127.9857   20.0614   -4.7907 C   0  0  0  0  0  0  0  0  0  0  0  0
  129.0692   20.8855   -5.0796 C   0  0  0  0  0  0  0  0  0  0  0  0
  130.3926   20.6421   -4.4608 C   0  0  0  0  0  0  0  0  0  0  0  0
  130.8345   19.3467   -4.1935 C   0  0  0  0  0  0  0  0  0  0  0  0
  132.0644   19.1148   -3.6050 C   0  0  0  0  0  0  0  0  0  0  0  0
  132.8487   20.1940   -3.2977 C   0  0  0  0  0  0  0  0  0  0  0  0
  132.4495   21.4839   -3.5063 C   0  0  0  0  0  0  0  0  0  0  0  0
  131.2052   21.7024   -4.0697 C   0  0  0  0  0  0  0  0  0  0  0  0
  134.0661   19.9763   -2.7253 F   0  0  0  0  0  0  0  0  0  0  0  0
  129.6637   22.5528   -6.2143 H   0  0  0  0  0  0  0  0  0  0  0  0
  127.5213   22.9270   -7.2427 H   0  0  0  0  0  0  0  0  0  0  0  0
  123.2409   22.8501   -8.4429 H   0  0  0  0  0  0  0  0  0  0  0  0
  122.5065   23.1045   -6.9187 H   0  0  0  0  0  0  0  0  0  0  0  0
  122.5297   20.7425   -6.4096 H   0  0  0  0  0  0  0  0  0  0  0  0
  120.3432   21.2038   -7.5353 H   0  0  0  0  0  0  0  0  0  0  0  0
  120.8214   19.5902   -7.0057 H   0  0  0  0  0  0  0  0  0  0  0  0
  118.8437   19.6306   -8.5378 H   0  0  0  0  0  0  0  0  0  0  0  0
  120.1898   18.6352   -9.0821 H   0  0  0  0  0  0  0  0  0  0  0  0
  120.1592   19.2241  -15.1695 H   0  0  0  0  0  0  0  0  0  0  0  0
  117.6380   19.3622  -15.3027 H   0  0  0  0  0  0  0  0  0  0  0  0
  116.7683   20.1890  -12.8996 H   0  0  0  0  0  0  0  0  0  0  0  0
  121.2381   21.2973  -11.4857 H   0  0  0  0  0  0  0  0  0  0  0  0
  121.7575   19.7419  -10.8712 H   0  0  0  0  0  0  0  0  0  0  0  0
  121.5713   22.2718   -9.2779 H   0  0  0  0  0  0  0  0  0  0  0  0
  123.0474   21.5501   -9.8823 H   0  0  0  0  0  0  0  0  0  0  0  0
  124.7405   20.2875   -8.4081 H   0  0  0  0  0  0  0  0  0  0  0  0
  124.5845   19.5468   -6.8814 H   0  0  0  0  0  0  0  0  0  0  0  0
  125.9502   19.6786   -5.1038 H   0  0  0  0  0  0  0  0  0  0  0  0
  128.1127   19.2644   -4.1475 H   0  0  0  0  0  0  0  0  0  0  0  0
  130.2321   18.5457   -4.4395 H   0  0  0  0  0  0  0  0  0  0  0  0
  132.3825   18.1540   -3.4030 H   0  0  0  0  0  0  0  0  0  0  0  0
  133.0606   22.2749   -3.2501 H   0  0  0  0  0  0  0  0  0  0  0  0
  130.8730   22.6704   -4.2028 H   0  0  0  0  0  0  0  0  0  0  0  0
  1  2  4  0
  2  3  4  0
  3  4  1  0
  4  5  1  0
  5  6  2  0
  5  7  1  0
  7  8  1  0
  8  9  1  0
  9 10  1  0
 10 11  1  0
 11 12  1  0
 12 13  1  0
 13 14  2  0
 13 15  1  0
 15 16  4  0
 16 17  4  0
 17 18  4  0
 18 19  4  0
 15 19  4  0
 12 20  1  0
 20 21  1  0
  9 21  1  0
  8 22  1  0
  4 22  1  0
  3 23  4  0
 23 24  4  0
  1 25  4  0
 24 25  4  0
 25 26  1  0
 26 27  4  0
 27 28  4  0
 28 29  4  0
 29 30  4  0
 30 31  4  0
 26 31  4  0
 29 32  1  0
  1 33  1  0
  2 34  1  0
  7 35  1  0
  7 36  1  0
  8 37  1  1
 10 38  1  0
 10 39  1  0
 11 40  1  0
 11 41  1  0
 17 42  1  0
 18 43  1  0
 19 44  1  0
 20 45  1  0
 20 46  1  0
 21 47  1  0
 21 48  1  0
 22 49  1  0
 22 50  1  0
 23 51  1  0
 24 52  1  0
 27 53  1  0
 28 54  1  0
 30 55  1  0
 31 56  1  0
M  END
