6W59_SZD_A_602
     RDKit          3D

 32 34  0  0  0  0  0  0  0  0999 V2000
    6.6885  -35.9705   -9.4906 N   0  0  0  0  0  0  0  0  0  0  0  0
    6.3471  -38.7820  -10.4056 C   0  0  0  0  0  0  0  0  0  0  0  0
    7.0708  -38.3697   -9.2746 C   0  0  0  0  0  0  0  0  0  0  0  0
    7.9315  -39.2785   -8.6620 C   0  0  0  0  0  0  0  0  0  0  0  0
    6.9877  -37.0015   -8.6452 C   0  0  0  0  0  0  0  0  0  0  0  0
    7.3563  -35.5652  -10.6709 C   0  0  0  0  0  0  0  0  0  0  0  0
    7.3878  -34.1624  -12.6263 C   0  0  0  0  0  0  0  0  0  0  0  0
    8.6392  -36.0334  -10.9820 C   0  0  0  0  0  0  0  0  0  0  0  0
   14.1566  -34.3273  -11.8911 C   0  0  0  0  0  0  0  0  0  0  0  0
   15.4500  -35.3197  -10.1452 C   0  0  0  0  0  0  0  0  0  0  0  0
   17.6928  -35.9253  -10.0728 C   0  0  1  0  0  0  0  0  0  0  0  0
    8.0286  -40.5523   -9.1751 C   0  0  0  0  0  0  0  0  0  0  0  0
    7.3387  -40.9920  -10.2745 C   0  0  0  0  0  0  0  0  0  0  0  0
    6.5014  -40.0786  -10.8627 C   0  0  0  0  0  0  0  0  0  0  0  0
    8.8544  -41.4348   -8.5537 F   0  0  0  0  0  0  0  0  0  0  0  0
    5.8040  -40.4987  -11.9580 F   0  0  0  0  0  0  0  0  0  0  0  0
    7.1522  -36.8559   -7.4334 O   0  0  0  0  0  0  0  0  0  0  0  0
    6.7386  -34.6308  -11.5024 C   0  0  0  0  0  0  0  0  0  0  0  0
    8.6442  -34.6360  -12.9663 C   0  0  0  0  0  0  0  0  0  0  0  0
    9.2596  -35.5669  -12.1344 C   0  0  0  0  0  0  0  0  0  0  0  0
   10.8396  -36.2222  -12.5865 S   0  0  2  0  0  0  0  0  0  0  0  0
   11.9119  -35.0517  -12.3492 N   0  0  0  0  0  0  0  0  0  0  0  0
   10.7313  -36.4968  -13.9949 O   0  0  0  0  0  0  0  0  0  0  0  0
   11.1979  -37.3043  -11.6680 O   0  0  0  0  0  0  0  0  0  0  0  0
   13.1018  -35.1721  -11.5857 C   0  0  0  0  0  0  0  0  0  0  0  0
   15.3293  -34.3911  -11.1685 C   0  0  0  0  0  0  0  0  0  0  0  0
   14.3833  -36.1507   -9.8169 C   0  0  0  0  0  0  0  0  0  0  0  0
   13.2180  -36.0880  -10.5500 C   0  0  0  0  0  0  0  0  0  0  0  0
   16.6646  -35.4039   -9.4161 O   0  0  0  0  0  0  0  0  0  0  0  0
   18.8022  -35.8756   -9.3417 F   0  0  0  0  0  0  0  0  0  0  0  0
   17.4272  -37.1983  -10.3253 F   0  0  0  0  0  0  0  0  0  0  0  0
   17.8980  -35.2932  -11.2441 F   0  0  0  0  0  0  0  0  0  0  0  0
  2  3  2  0
  3  4  1  0
  3  5  1  0
  1  5  1  0
  1  6  1  0
  6  8  2  0
  4 12  2  0
 12 13  1  0
 13 14  2  0
  2 14  1  0
 12 15  1  0
 14 16  1  0
  5 17  2  0
  6 18  1  0
  7 18  2  0
  7 19  1  0
  8 20  1  0
 19 20  2  0
 20 21  1  0
 21 22  1  6
 21 23  2  0
 21 24  2  0
  9 25  2  0
 22 25  1  0
 10 26  2  0
  9 26  1  0
 10 27  1  0
 27 28  2  0
 25 28  1  0
 11 29  1  0
 10 29  1  0
 11 30  1  1
 11 31  1  0
 11 32  1  0
M  END
