7ZTL_BCN_A_506
     RDKit          3D

 24 23  0  0  0  0  0  0  0  0999 V2000
  -36.8612   26.3304    3.3002 N   0  0  0  0  0  0  0  0  0  0  0  0
  -36.7231   26.8365    4.6673 C   0  0  0  0  0  0  0  0  0  0  0  0
  -37.5601   28.0824    4.8497 C   0  0  0  0  0  0  0  0  0  0  0  0
  -38.3767   28.1414    5.8064 O   0  0  0  0  0  0  0  0  0  0  0  0
  -37.4335   28.9795    3.9846 O   0  0  0  0  0  0  0  0  0  0  0  0
  -36.8790   24.8645    3.3057 C   0  0  0  0  0  0  0  0  0  0  0  0
  -35.6458   24.4460    2.5090 C   0  0  0  0  0  0  0  0  0  0  0  0
  -35.8633   24.6623    1.1009 O   0  0  0  0  0  0  0  0  0  0  0  0
  -35.7715   26.8460    2.4457 C   0  0  0  0  0  0  0  0  0  0  0  0
  -34.9843   25.6645    1.8850 C   0  0  0  0  0  0  0  0  0  0  0  0
  -35.7118   24.4371    2.0832 O   0  0  0  0  0  0  0  0  0  0  0  0
  -37.0508   26.0866    5.3567 H   0  0  0  0  0  0  0  0  0  0  0  0
  -35.6962   27.0759    4.8491 H   0  0  0  0  0  0  0  0  0  0  0  0
  -36.8076   28.8798    3.2944 H   0  0  0  0  0  0  0  0  0  0  0  0
  -36.8227   24.4923    4.3072 H   0  0  0  0  0  0  0  0  0  0  0  0
  -37.7806   24.4740    2.8817 H   0  0  0  0  0  0  0  0  0  0  0  0
  -34.8054   25.0254    2.8295 H   0  0  0  0  0  0  0  0  0  0  0  0
  -35.4592   23.4058    2.6767 H   0  0  0  0  0  0  0  0  0  0  0  0
  -36.0333   25.6038    0.9409 H   0  0  0  0  0  0  0  0  0  0  0  0
  -36.1853   27.4167    1.6406 H   0  0  0  0  0  0  0  0  0  0  0  0
  -35.1240   27.4733    3.0218 H   0  0  0  0  0  0  0  0  0  0  0  0
  -34.8227   25.8135    0.8379 H   0  0  0  0  0  0  0  0  0  0  0  0
  -34.0465   25.5986    2.3959 H   0  0  0  0  0  0  0  0  0  0  0  0
  -36.5641   24.4883    1.6229 H   0  0  0  0  0  0  0  0  0  0  0  0
  1  2  1  0
  2  3  1  0
  3  4  2  0
  3  5  1  0
  1  6  1  0
  6  7  1  0
  7  8  1  0
  1  9  1  0
  9 10  1  0
 10 11  1  0
  2 12  1  0
  2 13  1  0
  5 14  1  0
  6 15  1  0
  6 16  1  0
  7 17  1  0
  7 18  1  0
  8 19  1  0
  9 20  1  0
  9 21  1  0
 10 22  1  0
 10 23  1  0
 11 24  1  0
M  END
