7CTM_BDP_A_501
     RDKit          3D

 23 23  0  0  0  0  0  0  0  0999 V2000
    2.9173   -3.2239  106.1286 C   0  0  1  0  0  0  0  0  0  0  0  0
    1.6385   -2.3378  105.9923 C   0  0  1  0  0  0  0  0  0  0  0  0
    0.4363   -3.1768  105.5266 C   0  0  2  0  0  0  0  0  0  0  0  0
    0.2344   -4.4126  106.4378 C   0  0  1  0  0  0  0  0  0  0  0  0
    1.5928   -4.9481  106.9665 C   0  0  1  0  0  0  0  0  0  0  0  0
    1.5406   -6.4378  107.1345 C   0  0  0  0  0  0  0  0  0  0  0  0
    1.3299   -1.7408  107.2266 O   0  0  0  0  0  0  0  0  0  0  0  0
    0.6546   -3.5877  104.1999 O   0  0  0  0  0  0  0  0  0  0  0  0
   -0.5903   -4.0602  107.5193 O   0  0  0  0  0  0  0  0  0  0  0  0
    2.6383   -4.6174  106.0714 O   0  0  0  0  0  0  0  0  0  0  0  0
    1.5458   -7.1916  106.1240 O   0  0  0  0  0  0  0  0  0  0  0  0
    3.8336   -2.8997  105.1166 O   0  0  0  0  0  0  0  0  0  0  0  0
    1.4408   -6.9877  108.4088 O   0  0  0  0  0  0  0  0  0  0  0  0
    3.4230   -3.0024  107.0957 H   0  0  0  0  0  0  0  0  0  0  0  0
    1.8070   -1.5333  105.2373 H   0  0  0  0  0  0  0  0  0  0  0  0
   -0.4748   -2.5326  105.5609 H   0  0  0  0  0  0  0  0  0  0  0  0
   -0.2833   -5.1947  105.8317 H   0  0  0  0  0  0  0  0  0  0  0  0
    1.8029   -4.5148  107.9741 H   0  0  0  0  0  0  0  0  0  0  0  0
    2.1316   -1.2244  107.5032 H   0  0  0  0  0  0  0  0  0  0  0  0
    0.0446   -4.3526  104.0300 H   0  0  0  0  0  0  0  0  0  0  0  0
   -0.5969   -4.8357  108.1394 H   0  0  0  0  0  0  0  0  0  0  0  0
    3.3840   -2.2498  104.5153 H   0  0  0  0  0  0  0  0  0  0  0  0
    0.5995   -7.4697  108.7022 H   0  0  0  0  0  0  0  0  0  0  0  0
  1  2  1  0
  2  3  1  0
  3  4  1  0
  4  5  1  0
  5  6  1  0
  2  7  1  0
  3  8  1  0
  4  9  1  0
  1 10  1  0
  5 10  1  0
  6 11  2  0
  1 12  1  0
  6 13  1  0
  1 14  1  1
  2 15  1  6
  3 16  1  6
  4 17  1  6
  5 18  1  1
  7 19  1  0
  8 20  1  0
  9 21  1  0
 12 22  1  0
 13 23  1  0
M  END
