7ROR_69X_B_401
     RDKit          3D

 35 38  0  0  0  0  0  0  0  0999 V2000
  -13.0836    0.5985   25.1708 C   0  0  1  0  0  0  0  0  0  0  0  0
  -11.6290    0.7799   25.5017 C   0  0  0  0  0  0  0  0  0  0  0  0
  -11.4389    1.8919   26.4444 C   0  0  0  0  0  0  0  0  0  0  0  0
  -10.2185    2.2806   26.9568 C   0  0  0  0  0  0  0  0  0  0  0  0
  -10.1025    3.3379   27.8428 C   0  0  0  0  0  0  0  0  0  0  0  0
  -11.2431    4.0142   28.2169 C   0  0  0  0  0  0  0  0  0  0  0  0
  -12.4565    3.6420   27.7190 C   0  0  0  0  0  0  0  0  0  0  0  0
  -12.5698    2.5936   26.8408 C   0  0  0  0  0  0  0  0  0  0  0  0
  -13.1214   -0.2973   23.9644 C   0  0  0  0  0  0  0  0  0  0  0  0
  -15.1512    0.9080   21.4769 C   0  0  0  0  0  0  0  0  0  0  0  0
  -16.6434    1.1007   21.4028 C   0  0  2  0  0  0  0  0  0  0  0  0
  -18.2706   -0.1501   20.5182 C   0  0  2  0  0  0  0  0  0  0  0  0
  -18.0145   -0.7340   21.8923 C   0  0  1  0  0  0  0  0  0  0  0  0
  -17.3019    0.4268   22.5557 C   0  0  2  0  0  0  0  0  0  0  0  0
  -17.6324   -1.9285   18.8742 C   0  0  0  0  0  0  0  0  0  0  0  0
  -19.6025   -2.4179   18.0468 C   0  0  0  0  0  0  0  0  0  0  0  0
  -20.7578   -2.8512   17.4171 C   0  0  0  0  0  0  0  0  0  0  0  0
  -22.0644   -1.3468   18.6737 C   0  0  0  0  0  0  0  0  0  0  0  0
  -19.7310   -1.4182   19.0111 C   0  0  0  0  0  0  0  0  0  0  0  0
  -13.7780   -0.0469   26.2542 N   0  0  0  0  0  0  0  0  0  0  0  0
  -18.4965   -1.1350   19.5065 N   0  0  0  0  0  0  0  0  0  0  0  0
  -18.2994   -2.7150   17.9813 N   0  0  0  0  0  0  0  0  0  0  0  0
  -20.6599   -3.8779   16.4208 N   0  0  0  0  0  0  0  0  0  0  0  0
  -21.9735   -2.3200   17.7290 N   0  0  0  0  0  0  0  0  0  0  0  0
  -20.9575   -0.9048   19.3035 N   0  0  0  0  0  0  0  0  0  0  0  0
  -11.1289    5.0810   29.1104 O   0  0  0  0  0  0  0  0  0  0  0  0
  -13.4967   -1.4912   24.1206 O   0  0  0  0  0  0  0  0  0  0  0  0
  -12.7527    0.1881   22.7265 O   0  0  0  0  0  0  0  0  0  0  0  0
  -13.0542   -2.3364   21.5746 O   0  0  0  0  0  0  0  0  0  0  0  0
  -12.2108   -0.2912   20.2386 O   0  0  0  0  0  0  0  0  0  0  0  0
  -14.7716   -0.2634   20.8243 O   0  0  0  0  0  0  0  0  0  0  0  0
  -17.1137    0.5559   20.2200 O   0  0  0  0  0  0  0  0  0  0  0  0
  -19.1587   -1.1166   22.5521 O   0  0  0  0  0  0  0  0  0  0  0  0
  -18.2974    1.2639   23.0563 O   0  0  0  0  0  0  0  0  0  0  0  0
  -13.2103   -0.6699   21.3312 P   0  0  2  0  0  5  0  0  0  0  0  0
  1  2  1  0
  2  3  1  1
  3  4  2  0
  4  5  1  0
  5  6  2  0
  6  7  1  0
  7  8  2  0
  3  8  1  0
  1  9  1  0
 11 10  1  0
 12 13  1  0
 11 14  1  0
 13 14  1  0
 16 17  2  0
 16 19  1  0
  1 20  1  1
 12 21  1  6
 15 21  1  0
 19 21  1  0
 15 22  2  0
 16 22  1  0
 17 23  1  0
 18 24  2  0
 17 24  1  0
 19 25  2  0
 18 25  1  0
  6 26  1  0
  9 27  2  0
  9 28  1  0
 10 31  1  1
 11 32  1  6
 12 32  1  0
 13 33  1  1
 14 34  1  6
 35 28  1  0
 30 35  2  0
 35 29  1  1
 31 35  1  0
M  END
$$$$
