7C6P_SQH_A_501
     RDKit          3D

 21 23  0  0  0  0  0  0  0  0999 V2000
    5.4174  -15.8156  -10.9589 C   0  0  0  0  0  0  0  0  0  0  0  0
    2.6796  -16.6636   -8.0627 C   0  0  0  0  0  0  0  0  0  0  0  0
    3.3769  -15.4751   -8.0425 C   0  0  0  0  0  0  0  0  0  0  0  0
    3.1998  -14.4546   -7.0173 C   0  0  0  0  0  0  0  0  0  0  0  0
    2.1705  -14.6256   -6.1145 C   0  0  0  0  0  0  0  0  0  0  0  0
    1.9489  -13.6810   -5.1069 C   0  0  0  0  0  0  0  0  0  0  0  0
    2.7609  -12.5615   -5.0032 C   0  0  0  0  0  0  0  0  0  0  0  0
    3.7975  -12.3858   -5.9096 C   0  0  0  0  0  0  0  0  0  0  0  0
    4.0006  -13.3392   -6.9056 C   0  0  0  0  0  0  0  0  0  0  0  0
    4.4871  -16.1049   -9.9756 C   0  0  0  0  0  0  0  0  0  0  0  0
    3.8179  -17.3147  -10.0488 C   0  0  0  0  0  0  0  0  0  0  0  0
    4.0466  -18.2263  -11.0563 C   0  0  0  0  0  0  0  0  0  0  0  0
    4.9817  -17.9355  -12.0447 C   0  0  0  0  0  0  0  0  0  0  0  0
    5.6476  -16.7337  -11.9734 C   0  0  0  0  0  0  0  0  0  0  0  0
    2.8931  -17.5910   -9.0626 C   0  0  0  0  0  0  0  0  0  0  0  0
    4.2502  -15.2373   -8.9917 O   0  0  0  0  0  0  0  0  0  0  0  0
    0.9188  -13.8515   -4.2029 O   0  0  0  0  0  0  0  0  0  0  0  0
    2.5322  -11.6378   -4.0057 O   0  0  0  0  0  0  0  0  0  0  0  0
    2.2433  -18.6660   -9.0560 O   0  0  0  0  0  0  0  0  0  0  0  0
    6.5853  -16.4066  -12.9368 O   0  0  0  0  0  0  0  0  0  0  0  0
    6.1125  -14.6166  -10.9277 O   0  0  0  0  0  0  0  0  0  0  0  0
  2  3  2  0
  3  4  1  0
  4  5  2  0
  5  6  1  0
  6  7  2  0
  7  8  1  0
  8  9  2  0
  4  9  1  0
  1 10  2  0
 10 11  1  0
 11 12  2  0
 12 13  1  0
  1 14  1  0
 13 14  2  0
  2 15  1  0
 11 15  1  0
  3 16  1  0
 10 16  1  0
  6 17  1  0
  7 18  1  0
 15 19  2  0
 14 20  1  0
  1 21  1  0
M  END
$$$$
