1P62_GEO_B_302
     RDKit          3D

 29 30  0  0  0  0  0  0  0  0999 V2000
   69.0874   38.1632   22.0503 O   0  0  0  0  0  0  0  0  0  0  0  0
   70.3322   37.9913   21.3685 C   0  0  0  0  0  0  0  0  0  0  0  0
   70.5504   36.4632   21.1623 C   0  0  1  0  0  0  0  0  0  0  0  0
   69.2359   35.8686   20.9522 O   0  0  0  0  0  0  0  0  0  0  0  0
   69.2868   34.8573   19.9420 C   0  0  1  0  0  0  0  0  0  0  0  0
   67.9831   34.6786   19.2510 N   0  0  0  0  0  4  0  0  0  0  0  0
   67.2472   35.6867   18.8342 C   0  0  0  0  0  0  0  0  0  0  0  0
   66.0002   35.5200   18.4748 C   0  0  0  0  0  0  0  0  0  0  0  0
   65.4905   34.3221   18.3613 C   0  0  0  0  0  0  0  0  0  0  0  0
   66.2408   33.2562   18.6584 N   0  0  0  0  0  0  0  0  0  0  0  0
   67.5015   33.4202   19.1082 C   0  0  0  0  0  0  0  0  0  0  0  0
   68.2320   32.3360   19.4074 O   0  0  0  0  0  0  0  0  0  0  0  0
   64.2434   34.0820   17.9114 N   0  0  0  0  0  0  0  0  0  0  0  0
   70.4315   35.3638   19.0287 C   0  0  2  0  0  0  0  0  0  0  0  0
   69.9518   36.2135   18.1457 F   0  0  0  0  0  0  0  0  0  0  0  0
   70.9120   34.3816   18.3175 F   0  0  0  0  0  0  0  0  0  0  0  0
   71.4280   36.0477   19.9874 C   0  0  2  0  0  0  0  0  0  0  0  0
   72.4921   35.0944   20.3470 O   0  0  0  0  0  0  0  0  0  0  0  0
   68.9247   39.1088   22.1929 H   0  0  0  0  0  0  0  0  0  0  0  0
   71.1289   38.3974   21.9560 H   0  0  0  0  0  0  0  0  0  0  0  0
   70.3174   38.4987   20.4266 H   0  0  0  0  0  0  0  0  0  0  0  0
   71.0703   36.1277   22.0352 H   0  0  0  0  0  0  0  0  0  0  0  0
   69.4743   33.8728   20.3171 H   0  0  0  0  0  0  0  0  0  0  0  0
   67.6630   36.6303   18.7899 H   0  0  0  0  0  0  0  0  0  0  0  0
   65.4118   36.3448   18.2784 H   0  0  0  0  0  0  0  0  0  0  0  0
   63.6509   34.8331   17.6787 H   0  0  0  0  0  0  0  0  0  0  0  0
   63.9246   33.1555   17.8153 H   0  0  0  0  0  0  0  0  0  0  0  0
   71.9438   36.8924   19.5809 H   0  0  0  0  0  0  0  0  0  0  0  0
   72.0951   34.2947   20.7263 H   0  0  0  0  0  0  0  0  0  0  0  0
  1  2  1  0
  3  2  1  0
  3  4  1  0
  4  5  1  0
  5  6  1  0
  6  7  4  0
  7  8  4  0
  8  9  4  0
  9 10  4  0
  6 11  4  0
 10 11  4  0
 11 12  2  0
  9 13  1  0
  5 14  1  0
 14 15  1  6
 14 16  1  0
  3 17  1  0
 14 17  1  0
 17 18  1  0
  1 19  1  0
  2 20  1  0
  2 21  1  0
  3 22  1  1
  5 23  1  1
  7 24  1  0
  8 25  1  0
 13 26  1  0
 13 27  1  0
 17 28  1  6
 18 29  1  0
M  CHG  1   6   1
M  END
