
     RDKit          3D

  9  9  0  0  0  0  0  0  0  0999 V2000
   -2.2002  103.8233   25.5809 N   0  0  0  0  0  0  0  0  0  0  0  0
   -1.4467  102.8677   26.2051 C   0  0  0  0  0  0  0  0  0  0  0  0
   -0.5627  102.2526   25.6189 O   0  0  0  0  0  0  0  0  0  0  0  0
   -1.7459  102.6478   27.5184 N   0  0  0  0  0  0  0  0  0  0  0  0
   -2.7166  103.2973   28.2293 C   0  0  0  0  0  0  0  0  0  0  0  0
   -2.9338  103.0502   29.4108 O   0  0  0  0  0  0  0  0  0  0  0  0
   -3.4970  104.3240   27.4868 C   0  0  0  0  0  0  0  0  0  0  0  0
   -4.5650  105.0528   28.2322 C   0  0  0  0  0  0  0  0  0  0  0  0
   -3.1931  104.5295   26.1992 C   0  0  0  0  0  0  0  0  0  0  0  0
  1  2  4  0
  2  3  2  0
  2  4  4  0
  4  5  4  0
  5  6  2  0
  5  7  4  0
  7  8  1  0
  1  9  4  0
  7  9  4  0
M  END
