
     RDKit          3D

 17 18  0  0  0  0  0  0  0  0999 V2000
   22.5912   33.4139    9.4301 C   0  0  0  0  0  0  0  0  0  0  0  0
   19.7209   29.5104   11.7762 N   0  0  0  0  0  0  0  0  0  0  0  0
   20.4045   31.9134   11.7442 C   0  0  0  0  0  0  0  0  0  0  0  0
   21.0021   30.3448    9.8279 C   0  0  0  0  0  0  0  0  0  0  0  0
   22.3527   32.3362   10.2769 N   0  0  0  0  0  0  0  0  0  0  0  0
   21.6429   36.9987    8.8557 C   0  0  0  0  0  0  0  0  0  0  0  0
   22.2978   35.6378    8.6951 C   0  0  0  0  0  0  0  0  0  0  0  0
   21.9953   34.6432    9.6116 C   0  0  0  0  0  0  0  0  0  0  0  0
   20.9825   31.8002   10.3248 C   0  0  0  0  0  0  0  0  0  0  0  0
   20.9411   29.3554   10.9851 C   0  0  0  0  0  0  0  0  0  0  0  0
   19.2925   30.8955   11.9615 C   0  0  0  0  0  0  0  0  0  0  0  0
   23.6433   34.1796    7.5573 C   0  0  0  0  0  0  0  0  0  0  0  0
   20.7477   37.3088    7.8763 F   0  0  0  0  0  0  0  0  0  0  0  0
   22.5539   38.0175    8.8552 F   0  0  0  0  0  0  0  0  0  0  0  0
   20.9665   37.1175   10.0345 F   0  0  0  0  0  0  0  0  0  0  0  0
   23.4097   33.1654    8.4001 N   0  0  0  0  0  0  0  0  0  0  0  0
   23.1340   35.4133    7.6509 N   0  0  0  0  0  0  0  0  0  0  0  0
  1  5  1  0
  6  7  1  0
  7  8  4  0
  1  8  4  0
  5  9  1  0
  3  9  1  0
  4  9  1  0
  4 10  1  0
  2 10  1  0
  3 11  1  0
  2 11  1  0
  6 13  1  0
  6 14  1  0
  6 15  1  0
 12 16  4  0
  1 16  4  0
 12 17  4  0
  7 17  4  0
M  END
