7NB4_U6Q_A_401
     RDKit          3D

 53 56  0  0  0  0  0  0  0  0999 V2000
    6.7556    8.4868   -8.7852 C   0  0  2  0  0  0  0  0  0  0  0  0
    5.6356    7.4557   -8.8779 C   0  0  1  0  0  0  0  0  0  0  0  0
    5.4014    6.7995   -7.5475 C   0  0  0  0  0  0  0  0  0  0  0  0
    5.6055    5.4442   -7.2401 C   0  0  0  0  0  0  0  0  0  0  0  0
    5.4128    5.1714   -5.8669 C   0  0  0  0  0  0  0  0  0  0  0  0
    5.0926    6.3072   -5.1432 C   0  0  0  0  0  0  0  0  0  0  0  0
    5.0191    7.6499   -6.1366 S   0  0  0  0  0  0  0  0  0  0  0  0
    4.9419    6.2979   -3.7990 N   0  0  0  0  0  0  0  0  0  0  0  0
    5.0977    5.1251   -3.1299 C   0  0  0  0  0  0  0  0  0  0  0  0
    5.3922    3.9790   -3.8081 N   0  0  0  0  0  0  0  0  0  0  0  0
    5.5480    3.9594   -5.1646 C   0  0  0  0  0  0  0  0  0  0  0  0
    5.8148    2.7159   -5.8343 N   0  0  0  0  0  0  0  0  0  0  0  0
    6.2397    1.4886   -5.1528 C   0  0  2  0  0  0  0  0  0  0  0  0
    5.3663    1.2376   -3.9084 C   0  0  2  0  0  0  0  0  0  0  0  0
    4.0211    0.6521   -4.2643 C   0  0  0  0  0  0  0  0  0  0  0  0
    2.8903    1.4802   -4.3533 C   0  0  0  0  0  0  0  0  0  0  0  0
    1.6464    0.9390   -4.6894 C   0  0  0  0  0  0  0  0  0  0  0  0
    1.5210   -0.4306   -4.9352 C   0  0  0  0  0  0  0  0  0  0  0  0
    2.6388   -1.2619   -4.8464 C   0  0  0  0  0  0  0  0  0  0  0  0
    3.8846   -0.7250   -4.5138 C   0  0  0  0  0  0  0  0  0  0  0  0
    7.7150    1.5290   -4.8467 C   0  0  0  0  0  0  0  0  0  0  0  0
    8.1786    2.4708   -4.1501 O   0  0  0  0  0  0  0  0  0  0  0  0
    8.5575    0.5013   -5.2638 O   0  0  0  0  0  0  0  0  0  0  0  0
    6.0898    4.4656   -8.2341 C   0  0  0  0  0  0  0  0  0  0  0  0
    5.6366    4.4730   -9.5780 C   0  0  0  0  0  0  0  0  0  0  0  0
    4.5925    5.4630  -10.0414 C   0  0  2  0  0  0  0  0  0  0  0  0
    6.0920    3.4629  -10.4572 C   0  0  0  0  0  0  0  0  0  0  0  0
    5.5206    3.3448  -12.1184 Cl  0  0  0  0  0  0  0  0  0  0  0  0
    7.0047    2.5016  -10.0120 C   0  0  0  0  0  0  0  0  0  0  0  0
    7.4613    2.5173   -8.6966 C   0  0  0  0  0  0  0  0  0  0  0  0
    7.0035    3.4895   -7.8108 C   0  0  0  0  0  0  0  0  0  0  0  0
    6.5969    9.1474   -7.9062 H   0  0  0  0  0  0  0  0  0  0  0  0
    6.7654    9.1116   -9.7065 H   0  0  0  0  0  0  0  0  0  0  0  0
    7.7426    7.9836   -8.6873 H   0  0  0  0  0  0  0  0  0  0  0  0
    4.7025    7.9589   -9.2099 H   0  0  0  0  0  0  0  0  0  0  0  0
    5.8967    6.6931   -9.6420 H   0  0  0  0  0  0  0  0  0  0  0  0
    4.9837    5.0988   -2.0530 H   0  0  0  0  0  0  0  0  0  0  0  0
    5.5426    2.6270   -6.8388 H   0  0  0  0  0  0  0  0  0  0  0  0
    6.0710    0.6428   -5.8561 H   0  0  0  0  0  0  0  0  0  0  0  0
    5.2018    2.2053   -3.3851 H   0  0  0  0  0  0  0  0  0  0  0  0
    5.8965    0.5786   -3.1903 H   0  0  0  0  0  0  0  0  0  0  0  0
    2.9712    2.5418   -4.1607 H   0  0  0  0  0  0  0  0  0  0  0  0
    0.7797    1.5820   -4.7585 H   0  0  0  0  0  0  0  0  0  0  0  0
    0.5589   -0.8470   -5.1952 H   0  0  0  0  0  0  0  0  0  0  0  0
    2.5404   -2.3226   -5.0364 H   0  0  0  0  0  0  0  0  0  0  0  0
    4.7414   -1.3823   -4.4501 H   0  0  0  0  0  0  0  0  0  0  0  0
    8.9067   -0.1848   -4.6056 H   0  0  0  0  0  0  0  0  0  0  0  0
    3.7605    5.4936   -9.3066 H   0  0  0  0  0  0  0  0  0  0  0  0
    4.1921    5.1794  -11.0365 H   0  0  0  0  0  0  0  0  0  0  0  0
    5.0043    6.4863  -10.1556 H   0  0  0  0  0  0  0  0  0  0  0  0
    7.3544    1.7306  -10.6859 H   0  0  0  0  0  0  0  0  0  0  0  0
    8.1635    1.7663   -8.3594 H   0  0  0  0  0  0  0  0  0  0  0  0
    7.3542    3.4787   -6.7865 H   0  0  0  0  0  0  0  0  0  0  0  0
  1  2  1  0
  2  3  1  0
  3  4  2  0
  4  5  1  0
  5  6  2  0
  6  7  1  0
  3  7  1  0
  6  8  1  0
  8  9  2  0
  9 10  1  0
 10 11  2  0
  5 11  1  0
 11 12  1  0
 12 13  1  0
 13 14  1  0
 14 15  1  0
 15 16  2  0
 16 17  1  0
 17 18  2  0
 18 19  1  0
 15 20  1  0
 19 20  2  0
 13 21  1  0
 21 22  2  0
 21 23  1  0
  4 24  1  0
 24 25  2  0
 25 26  1  0
 25 27  1  0
 27 28  1  0
 27 29  2  0
 29 30  1  0
 24 31  1  0
 30 31  2  0
  1 32  1  1
  1 33  1  0
  1 34  1  0
  2 35  1  6
  2 36  1  0
  9 37  1  0
 12 38  1  0
 13 39  1  6
 14 40  1  1
 14 41  1  0
 16 42  1  0
 17 43  1  0
 18 44  1  0
 19 45  1  0
 20 46  1  0
 23 47  1  0
 26 48  1  1
 26 49  1  0
 26 50  1  0
 29 51  1  0
 30 52  1  0
 31 53  1  0
M  END
