6XCT_478_A_401
     RDKit          3D

 35 37  0  0  0  0  0  0  0  0999 V2000
   16.6571   21.2486  -11.8018 C   0  0  0  0  0  0  0  0  0  0  0  0
   16.2887   19.3384  -13.0923 C   0  0  0  0  0  0  0  0  0  0  0  0
   14.3617   18.4589  -10.8149 C   0  0  0  0  0  0  0  0  0  0  0  0
   16.2454   19.8151  -11.6772 C   0  0  2  0  0  0  0  0  0  0  0  0
   12.2439   17.3580   -9.9844 C   0  0  2  0  0  0  0  0  0  0  0  0
   10.9597   17.2114  -10.7910 C   0  0  1  0  0  0  0  0  0  0  0  0
   11.9910   17.2366   -8.5166 C   0  0  0  0  0  0  0  0  0  0  0  0
   13.1764   17.6094   -7.7013 C   0  0  0  0  0  0  0  0  0  0  0  0
   13.3523   18.9227   -7.2750 C   0  0  0  0  0  0  0  0  0  0  0  0
   14.1088   16.6361   -7.3675 C   0  0  0  0  0  0  0  0  0  0  0  0
   14.4726   19.2564   -6.5091 C   0  0  0  0  0  0  0  0  0  0  0  0
   15.2044   16.9965   -6.6102 C   0  0  0  0  0  0  0  0  0  0  0  0
   15.4102   18.2903   -6.1704 C   0  0  0  0  0  0  0  0  0  0  0  0
   10.4024   15.8073  -10.5300 C   0  0  0  0  0  0  0  0  0  0  0  0
   11.1284   15.0988  -12.7174 C   0  0  0  0  0  0  0  0  0  0  0  0
   10.6559   14.0755  -13.7157 C   0  0  1  0  0  0  0  0  0  0  0  0
   10.1373   12.4040   -9.9571 C   0  0  0  0  0  0  0  0  0  0  0  0
    9.5552   11.3003  -10.5372 C   0  0  0  0  0  0  0  0  0  0  0  0
    8.5615   10.6019   -9.8820 C   0  0  0  0  0  0  0  0  0  0  0  0
    8.1319   10.9957   -8.6335 C   0  0  0  0  0  0  0  0  0  0  0  0
    8.7044   12.1108   -8.0219 C   0  0  0  0  0  0  0  0  0  0  0  0
    9.7040   12.7981   -8.7021 C   0  0  0  0  0  0  0  0  0  0  0  0
    9.2433   14.2240  -14.1662 C   0  0  0  0  0  0  0  0  0  0  0  0
   11.5611   14.2036  -14.9288 C   0  0  0  0  0  0  0  0  0  0  0  0
   16.9399   20.5039  -13.8086 C   0  0  0  0  0  0  0  0  0  0  0  0
   12.9975   18.5155  -10.3896 N   0  0  0  0  0  0  0  0  0  0  0  0
   10.9181   14.8072  -11.3648 N   0  0  0  0  0  0  0  0  0  0  0  0
    7.1027   10.2526   -7.9824 N   0  0  0  0  0  0  0  0  0  0  0  0
   15.0074   19.6456  -11.0358 O   0  0  0  0  0  0  0  0  0  0  0  0
   14.9786   17.3934  -10.9905 O   0  0  0  0  0  0  0  0  0  0  0  0
   10.0464   18.1219  -10.3011 O   0  0  0  0  0  0  0  0  0  0  0  0
   12.1004   12.4478  -11.7366 O   0  0  0  0  0  0  0  0  0  0  0  0
   12.4405   13.5957   -9.6380 O   0  0  0  0  0  0  0  0  0  0  0  0
   16.3898   21.6000  -13.1439 O   0  0  0  0  0  0  0  0  0  0  0  0
   11.4031   13.3410  -10.7202 S   0  0  2  0  0  6  0  0  0  0  0  0
  1  4  1  0
  2  4  1  0
  5  6  1  0
  5  7  1  0
  7  8  1  6
  8  9  2  0
  8 10  1  0
  9 11  1  0
 10 12  2  0
 11 13  2  0
 12 13  1  0
  6 14  1  0
 15 16  1  0
 17 18  2  0
 18 19  1  0
 19 20  2  0
 20 21  1  0
 17 22  1  0
 21 22  2  0
 16 23  1  6
 24 16  1  6
  2 25  1  6
  3 26  1  0
  5 26  1  1
 14 27  1  1
 15 27  1  1
 20 28  1  0
  3 29  1  0
  4 29  1  6
  3 30  2  0
  6 31  1  1
  1 34  1  1
 25 34  1  6
 17 35  1  0
 35 27  1  6
 32 35  2  0
 33 35  2  0
M  END
$$$$
