5SD5_HWI_A_202
     RDKit          3D

 56 58  0  0  0  0  0  0  0  0999 V2000
    8.4162    5.1903   14.4847 C   0  0  0  0  0  0  0  0  0  0  0  0
    7.1540    3.1473   12.7718 C   0  0  2  0  0  0  0  0  0  0  0  0
    6.9037    0.0711   14.1696 C   0  0  0  0  0  0  0  0  0  0  0  0
    5.3197   -1.7407   13.9028 C   0  0  0  0  0  0  0  0  0  0  0  0
    5.5891   -1.7740   12.5341 C   0  0  0  0  0  0  0  0  0  0  0  0
    6.5210   -0.8923   11.9708 C   0  0  0  0  0  0  0  0  0  0  0  0
    7.2622   -0.0734    9.4834 C   0  0  2  0  0  0  0  0  0  0  0  0
    7.1623    4.6368   12.3922 C   0  0  2  0  0  0  0  0  0  0  0  0
    7.6710    2.2357   11.6560 C   0  0  2  0  0  0  0  0  0  0  0  0
    7.1719    0.0539   12.7857 C   0  0  0  0  0  0  0  0  0  0  0  0
    5.9901   -0.8325   14.7317 C   0  0  0  0  0  0  0  0  0  0  0  0
    5.6757   -0.7738   16.1975 C   0  0  2  0  0  0  0  0  0  0  0  0
    6.6278    5.1703   17.8032 C   0  0  2  0  0  0  0  0  0  0  0  0
    6.6746    4.7922   16.3246 C   0  0  1  0  0  0  0  0  0  0  0  0
    8.0888    4.8166   15.8080 C   0  0  0  0  0  0  0  0  0  0  0  0
   10.3958    4.6022   16.3200 C   0  0  0  0  0  0  0  0  0  0  0  0
    9.7758    5.3127   14.1496 C   0  0  0  0  0  0  0  0  0  0  0  0
    7.2065   -1.1023    8.3943 C   0  0  1  0  0  0  0  0  0  0  0  0
    6.7227   -1.9841    9.5071 C   0  0  1  0  0  0  0  0  0  0  0  0
    6.1774   -0.8306    7.3299 C   0  0  0  0  0  0  0  0  0  0  0  0
    9.0904    4.5271   16.6818 N   0  0  0  0  0  0  0  0  0  0  0  0
   11.4171    4.2805   17.2611 N   0  0  0  0  0  0  0  0  0  0  0  0
   10.7281    5.0041   15.0676 N   0  0  0  0  0  0  0  0  0  0  0  0
   10.1765    5.7334   12.8426 N   0  0  0  0  0  0  0  0  0  0  0  0
    6.7858   -0.9583   10.5648 N   0  0  0  0  0  0  0  0  0  0  0  0
    7.4426    5.4744   13.5166 O   0  0  0  0  0  0  0  0  0  0  0  0
    8.0532    0.9708   12.1915 O   0  0  0  0  0  0  0  0  0  0  0  0
    6.2313   -1.4458    6.2313 O   0  0  0  0  0  0  0  0  0  0  0  0
    5.2150    0.1573    7.5209 O   0  0  0  0  0  0  0  0  0  0  0  0
    6.1231    2.8417   13.0521 H   0  0  0  0  0  0  0  0  0  0  0  0
    7.8005    3.0042   13.6651 H   0  0  0  0  0  0  0  0  0  0  0  0
    7.3973    0.7834   14.8170 H   0  0  0  0  0  0  0  0  0  0  0  0
    4.5914   -2.4276   14.3166 H   0  0  0  0  0  0  0  0  0  0  0  0
    5.0720   -2.4920   11.9103 H   0  0  0  0  0  0  0  0  0  0  0  0
    6.5694    0.7818    9.3375 H   0  0  0  0  0  0  0  0  0  0  0  0
    8.3013    0.2694    9.6864 H   0  0  0  0  0  0  0  0  0  0  0  0
    6.2146    4.9212   11.9009 H   0  0  0  0  0  0  0  0  0  0  0  0
    7.9710    4.7946   11.6476 H   0  0  0  0  0  0  0  0  0  0  0  0
    8.5314    2.7135   11.1501 H   0  0  0  0  0  0  0  0  0  0  0  0
    6.8648    2.0864   10.9062 H   0  0  0  0  0  0  0  0  0  0  0  0
    5.9370    0.2306   16.5906 H   0  0  0  0  0  0  0  0  0  0  0  0
    6.2545   -1.5425   16.7528 H   0  0  0  0  0  0  0  0  0  0  0  0
    4.5959   -0.9631   16.3759 H   0  0  0  0  0  0  0  0  0  0  0  0
    7.1136    6.1557   17.9628 H   0  0  0  0  0  0  0  0  0  0  0  0
    7.1536    4.4133   18.4161 H   0  0  0  0  0  0  0  0  0  0  0  0
    5.5720    5.2350   18.1412 H   0  0  0  0  0  0  0  0  0  0  0  0
    6.1938    3.8049   16.1685 H   0  0  0  0  0  0  0  0  0  0  0  0
    6.0722    5.5293   15.7507 H   0  0  0  0  0  0  0  0  0  0  0  0
    8.2057   -1.3886    8.0006 H   0  0  0  0  0  0  0  0  0  0  0  0
    5.6784   -2.3509    9.3841 H   0  0  0  0  0  0  0  0  0  0  0  0
    7.4301   -2.8152    9.7229 H   0  0  0  0  0  0  0  0  0  0  0  0
   11.2109    3.6560   18.0724 H   0  0  0  0  0  0  0  0  0  0  0  0
   12.3809    4.6668   17.1470 H   0  0  0  0  0  0  0  0  0  0  0  0
   10.2566    6.7511   12.6227 H   0  0  0  0  0  0  0  0  0  0  0  0
   10.3812    5.0451   12.0851 H   0  0  0  0  0  0  0  0  0  0  0  0
    4.4816    0.0435    8.2095 H   0  0  0  0  0  0  0  0  0  0  0  0
  4  5  1  0
  5  6  2  0
  2  8  1  0
  2  9  1  0
  3 10  2  0
  6 10  1  0
  3 11  1  0
  4 11  2  0
 11 12  1  0
 13 14  1  0
 14 15  1  0
  1 15  2  0
  1 17  1  0
  7 18  1  0
 18 19  1  0
 18 20  1  0
 15 21  1  0
 16 21  2  0
 16 22  1  0
 16 23  1  0
 17 23  2  0
 17 24  1  0
  6 25  1  0
  7 25  1  0
 19 25  1  0
  1 26  1  0
  8 26  1  0
  9 27  1  0
 10 27  1  0
 20 28  2  0
 20 29  1  0
  2 30  1  1
  2 31  1  0
  3 32  1  0
  4 33  1  0
  5 34  1  0
  7 35  1  6
  7 36  1  0
  8 37  1  6
  8 38  1  0
  9 39  1  6
  9 40  1  0
 12 41  1  1
 12 42  1  0
 12 43  1  0
 13 44  1  6
 13 45  1  0
 13 46  1  0
 14 47  1  1
 14 48  1  0
 18 49  1  6
 19 50  1  6
 19 51  1  0
 22 52  1  0
 22 53  1  0
 24 54  1  0
 24 55  1  0
 29 56  1  0
M  END
