7VYJ_CA0_A_702
     RDKit          3D

 26 28  0  0  0  0  0  0  0  0999 V2000
   54.2883  -59.8101   13.9924 N   0  0  0  0  0  0  0  0  0  0  0  0
   55.1929  -60.4549   14.7513 C   0  0  0  0  0  0  0  0  0  0  0  0
   55.7598  -59.8335   15.8008 N   0  0  0  0  0  0  0  0  0  0  0  0
   55.4413  -58.5636   16.1172 C   0  0  0  0  0  0  0  0  0  0  0  0
   54.5123  -57.8565   15.3629 C   0  0  0  0  0  0  0  0  0  0  0  0
   53.9570  -58.5404   14.2927 C   0  0  0  0  0  0  0  0  0  0  0  0
   52.9934  -57.8757   13.4719 N   0  0  0  0  0  0  0  0  0  0  0  0
   54.3765  -56.6390   15.8761 N   0  0  0  0  0  0  0  0  0  0  0  0
   55.1902  -56.5298   16.9445 C   0  0  0  0  0  0  0  0  0  0  0  0
   55.8288  -57.7021   17.0790 N   0  0  0  0  0  0  0  0  0  0  0  0
   55.9594  -55.2360   22.0987 P   0  0  1  0  0  5  0  0  0  0  0  0
   53.4833  -56.1859   22.6699 C   0  0  0  0  0  0  0  0  0  0  0  0
   56.7910  -57.9628   18.1241 C   0  0  1  0  0  0  0  0  0  0  0  0
   55.1437  -54.1121   21.1567 O   0  0  0  0  0  0  0  0  0  0  0  0
   53.1480  -54.9654   22.6733 O   0  0  0  0  0  0  0  0  0  0  0  0
   57.9496  -56.9949   18.1376 C   0  0  2  0  0  0  0  0  0  0  0  0
   58.8276  -57.1804   17.0782 O   0  0  0  0  0  0  0  0  0  0  0  0
   56.4788  -54.6338   23.3833 O   0  0  0  0  0  0  0  0  0  0  0  0
   52.4725  -57.1500   22.8160 N   0  0  0  0  0  0  0  0  0  0  0  0
   58.5902  -57.4405   19.4557 C   0  0  2  0  0  0  0  0  0  0  0  0
   59.4254  -58.5068   19.1510 O   0  0  0  0  0  0  0  0  0  0  0  0
   54.8349  -56.4777   22.5208 O   0  0  0  0  0  0  0  0  0  0  0  0
   57.3995  -57.9926   20.2000 C   0  0  2  0  0  0  0  0  0  0  0  0
   56.2821  -57.7407   19.3883 O   0  0  0  0  0  0  0  0  0  0  0  0
   57.3107  -57.3370   21.5476 C   0  0  0  0  0  0  0  0  0  0  0  0
   57.2473  -55.9641   21.3273 O   0  0  0  0  0  0  0  0  0  0  0  0
  1  2  2  0
  2  3  1  0
  3  4  2  0
  4  5  1  0
  1  6  1  0
  5  6  2  0
  6  7  1  0
  5  8  1  0
  8  9  2  0
  4 10  1  0
  9 10  1  0
 13 10  1  6
 11 14  1  6
 12 15  2  0
 13 16  1  0
 16 17  1  6
 11 18  2  0
 12 19  1  0
 16 20  1  0
 20 21  1  6
 11 22  1  0
 12 22  1  0
 20 23  1  0
 13 24  1  0
 23 24  1  6
 23 25  1  0
 11 26  1  0
 25 26  1  1
M  END
$$$$
