7UTW_NAI_B_403
     RDKit          3D

 44 48  0  0  0  0  0  0  0  0999 V2000
   31.6780   -4.5447  -37.2643 P   0  0  2  0  0  0  0  0  0  0  0  0
   30.4377   -5.4023  -37.3617 O   0  0  0  0  0  0  0  0  0  0  0  0
   32.9798   -5.5490  -37.7073 O   0  0  0  0  0  0  0  0  0  0  0  0
   31.9303   -3.9959  -35.6932 O   0  0  0  0  0  0  0  0  0  0  0  0
   31.9012   -2.6271  -35.5618 C   0  0  0  0  0  0  0  0  0  0  0  0
   32.8149   -2.1292  -34.4640 C   0  0  1  0  0  0  0  0  0  0  0  0
   33.1011   -3.1630  -33.5424 O   0  0  0  0  0  0  0  0  0  0  0  0
   34.2038   -1.8324  -34.9870 C   0  0  1  0  0  0  0  0  0  0  0  0
   34.2725   -0.5957  -35.6132 O   0  0  0  0  0  0  0  0  0  0  0  0
   35.0022   -1.8331  -33.6825 C   0  0  1  0  0  0  0  0  0  0  0  0
   35.1815   -0.4760  -33.3441 O   0  0  0  0  0  0  0  0  0  0  0  0
   34.0767   -2.5346  -32.7461 C   0  0  2  0  0  0  0  0  0  0  0  0
   34.6945   -3.4067  -31.8000 N   0  0  0  0  0  0  0  0  0  0  0  0
   35.3978   -4.5170  -32.1685 C   0  0  0  0  0  0  0  0  0  0  0  0
   35.8575   -5.1339  -31.0678 N   0  0  0  0  0  0  0  0  0  0  0  0
   35.4713   -4.4539  -29.9958 C   0  0  0  0  0  0  0  0  0  0  0  0
   35.6877   -4.6775  -28.6524 C   0  0  0  0  0  0  0  0  0  0  0  0
   36.4388   -5.7932  -28.1811 N   0  0  0  0  0  0  0  0  0  0  0  0
   35.1405   -3.7684  -27.8049 N   0  0  0  0  0  0  0  0  0  0  0  0
   34.4309   -2.7167  -28.2775 C   0  0  0  0  0  0  0  0  0  0  0  0
   34.2257   -2.5077  -29.5906 N   0  0  0  0  0  0  0  0  0  0  0  0
   34.7462   -3.3775  -30.4604 C   0  0  0  0  0  0  0  0  0  0  0  0
   31.6142   -3.2899  -38.3786 O   0  0  0  0  0  0  0  0  0  0  0  0
   33.1034   -3.1312  -39.1527 P   0  0  2  0  0  0  0  0  0  0  0  0
   32.8666   -2.1665  -40.5262 O   0  0  0  0  0  0  0  0  0  0  0  0
   33.6700   -4.4868  -39.5346 O   0  0  0  0  0  0  0  0  0  0  0  0
   34.2665   -2.3741  -38.1944 O   0  0  0  0  0  0  0  0  0  0  0  0
   35.5584   -2.5581  -38.6410 C   0  0  0  0  0  0  0  0  0  0  0  0
   36.5103   -2.9239  -37.5216 C   0  0  1  0  0  0  0  0  0  0  0  0
   36.9894   -4.2173  -37.6684 O   0  0  0  0  0  0  0  0  0  0  0  0
   37.7201   -2.0174  -37.6463 C   0  0  1  0  0  0  0  0  0  0  0  0
   37.4730   -0.8586  -36.9279 O   0  0  0  0  0  0  0  0  0  0  0  0
   38.7819   -2.8816  -37.0015 C   0  0  1  0  0  0  0  0  0  0  0  0
   38.9665   -2.4100  -35.7077 O   0  0  0  0  0  0  0  0  0  0  0  0
   38.2299   -4.2730  -37.0664 C   0  0  2  0  0  0  0  0  0  0  0  0
   39.1644   -5.0972  -37.8092 N   0  0  0  0  0  0  0  0  0  0  0  0
   39.7694   -6.2350  -37.1927 C   0  0  0  0  0  0  0  0  0  0  0  0
   40.6221   -6.9773  -37.8884 C   0  0  0  0  0  0  0  0  0  0  0  0
   41.2344   -8.1402  -37.2435 C   0  0  0  0  0  0  0  0  0  0  0  0
   42.1151   -8.8460  -37.7982 O   0  0  0  0  0  0  0  0  0  0  0  0
   40.8472   -8.5297  -35.9268 N   0  0  0  0  0  0  0  0  0  0  0  0
   40.9960   -6.7016  -39.2859 C   0  0  0  0  0  0  0  0  0  0  0  0
   40.3330   -5.5191  -39.8446 C   0  0  0  0  0  0  0  0  0  0  0  0
   39.4935   -4.7895  -39.1573 C   0  0  0  0  0  0  0  0  0  0  0  0
  1  2  2  0
  1  3  1  6
  1  4  1  0
  4  5  1  0
  6  5  1  6
  6  7  1  0
  6  8  1  0
  8  9  1  1
  8 10  1  0
 10 11  1  1
  7 12  1  0
 10 12  1  0
 12 13  1  6
 13 14  1  0
 14 15  2  0
 15 16  1  0
 16 17  2  0
 17 18  1  0
 17 19  1  0
 19 20  2  0
 20 21  1  0
 13 22  1  0
 16 22  1  0
 21 22  2  0
  1 23  1  0
 23 24  1  0
 24 25  1  6
 24 26  2  0
 24 27  1  0
 27 28  1  0
 29 28  1  6
 29 30  1  0
 29 31  1  0
 31 32  1  1
 31 33  1  0
 33 34  1  1
 30 35  1  0
 33 35  1  0
 35 36  1  6
 36 37  1  0
 37 38  2  0
 38 39  1  0
 39 40  2  0
 39 41  1  0
 38 42  1  0
 42 43  1  0
 36 44  1  0
 43 44  2  0
M  END
$$$$
