1KZK_JE2_A_701
     RDKit          3D

 78 81  0  0  0  0  0  0  0  0999 V2000
    1.3316   -5.8064    0.4993 C   0  0  0  0  0  0  0  0  0  0  0  0
    2.3895   -4.9415    0.7662 C   0  0  0  0  0  0  0  0  0  0  0  0
    2.2301   -3.9053    1.6824 C   0  0  0  0  0  0  0  0  0  0  0  0
    1.0124   -3.7285    2.3588 C   0  0  0  0  0  0  0  0  0  0  0  0
   -0.0565   -4.6385    2.1298 C   0  0  0  0  0  0  0  0  0  0  0  0
    0.1079   -5.6593    1.1592 C   0  0  0  0  0  0  0  0  0  0  0  0
   -1.3469   -4.5528    2.9129 C   0  0  0  0  0  0  0  0  0  0  0  0
    0.9061   -2.6041    3.3128 C   0  0  0  0  0  0  0  0  0  0  0  0
   -0.9217   -6.5428    0.8248 O   0  0  0  0  0  0  0  0  0  0  0  0
    1.9438   -2.1558    3.8719 O   0  0  0  0  0  0  0  0  0  0  0  0
   -1.9283   -0.3470    2.1667 C   0  0  0  0  0  0  0  0  0  0  0  0
   -0.3798   -2.0320    3.5979 N   0  0  0  0  0  0  0  0  0  0  0  0
   -3.0788   -0.0384    1.7560 O   0  0  0  0  0  0  0  0  0  0  0  0
   -1.4886    0.1953    3.5111 C   0  0  1  0  0  0  0  0  0  0  0  0
   -2.1385   -1.9126    6.0183 C   0  0  0  0  0  0  0  0  0  0  0  0
   -0.9731   -0.9743    5.7887 C   0  0  0  0  0  0  0  0  0  0  0  0
   -4.2840   -3.6792    6.4314 C   0  0  0  0  0  0  0  0  0  0  0  0
   -0.5586   -0.7613    4.3053 C   0  0  1  0  0  0  0  0  0  0  0  0
   -0.8709    1.4438    3.3427 O   0  0  0  0  0  0  0  0  0  0  0  0
   -2.6958   -2.6241    4.9409 C   0  0  0  0  0  0  0  0  0  0  0  0
   -2.6361   -2.1388    7.3128 C   0  0  0  0  0  0  0  0  0  0  0  0
   -3.7715   -3.4927    5.1467 C   0  0  0  0  0  0  0  0  0  0  0  0
   -3.7097   -3.0123    7.5147 C   0  0  0  0  0  0  0  0  0  0  0  0
   -0.7304    0.1519   -0.6529 C   0  0  0  0  0  0  0  0  0  0  0  0
   -1.0893   -1.1882    1.3398 N   0  0  0  0  0  0  0  0  0  0  0  0
   -0.8754    0.4250   -1.8766 O   0  0  0  0  0  0  0  0  0  0  0  0
   -1.2111   -1.1791   -0.1178 C   0  0  2  0  0  0  0  0  0  0  0  0
   -0.3913   -2.3824   -0.6598 C   0  0  2  0  0  0  0  0  0  0  0  0
    0.0631   -1.9133    1.8662 C   0  0  0  0  0  0  0  0  0  0  0  0
    0.1337   -2.1787   -2.0960 C   0  0  0  0  0  0  0  0  0  0  0  0
   -1.2387   -3.6678   -0.6299 C   0  0  0  0  0  0  0  0  0  0  0  0
    1.0162   -2.6011    0.4771 S   0  0  0  0  0  0  0  0  0  0  0  0
   -0.1480    1.1144    0.2373 N   0  0  0  0  0  0  0  0  0  0  0  0
    0.2094    0.7917    1.6163 C   0  0  0  0  0  0  0  0  0  0  0  0
   -0.0143    1.9821    2.5229 C   0  0  0  0  0  0  0  0  0  0  0  0
    0.8080    3.1379    2.4624 C   0  0  0  0  0  0  0  0  0  0  0  0
    0.5432    4.2188    3.3224 C   0  0  0  0  0  0  0  0  0  0  0  0
   -0.5127    4.1587    4.2338 C   0  0  0  0  0  0  0  0  0  0  0  0
   -1.3229    3.0248    4.2921 C   0  0  0  0  0  0  0  0  0  0  0  0
   -1.0779    1.9447    3.4429 C   0  0  0  0  0  0  0  0  0  0  0  0
    1.9478    3.2445    1.4837 C   0  0  0  0  0  0  0  0  0  0  0  0
    1.4621   -6.5982   -0.2276 H   0  0  0  0  0  0  0  0  0  0  0  0
    3.3333   -5.0671    0.2517 H   0  0  0  0  0  0  0  0  0  0  0  0
    3.0591   -3.2296    1.8580 H   0  0  0  0  0  0  0  0  0  0  0  0
   -1.2522   -3.9433    3.8326 H   0  0  0  0  0  0  0  0  0  0  0  0
   -1.6528   -5.5619    3.2583 H   0  0  0  0  0  0  0  0  0  0  0  0
   -2.1438   -4.1197    2.2741 H   0  0  0  0  0  0  0  0  0  0  0  0
   -1.8588   -6.4785    1.2024 H   0  0  0  0  0  0  0  0  0  0  0  0
   -1.2008   -2.4265    3.0949 H   0  0  0  0  0  0  0  0  0  0  0  0
   -2.4097    0.3483    4.1231 H   0  0  0  0  0  0  0  0  0  0  0  0
   -1.1771    0.0105    6.2617 H   0  0  0  0  0  0  0  0  0  0  0  0
   -0.0971   -1.3875    6.3366 H   0  0  0  0  0  0  0  0  0  0  0  0
   -5.1143   -4.3552    6.5895 H   0  0  0  0  0  0  0  0  0  0  0  0
    0.4246   -0.2444    4.3614 H   0  0  0  0  0  0  0  0  0  0  0  0
   -0.8844    1.9010    4.2251 H   0  0  0  0  0  0  0  0  0  0  0  0
   -2.3025   -2.4996    3.9400 H   0  0  0  0  0  0  0  0  0  0  0  0
   -2.1860   -1.6523    8.1683 H   0  0  0  0  0  0  0  0  0  0  0  0
   -4.2043   -4.0234    4.3090 H   0  0  0  0  0  0  0  0  0  0  0  0
   -4.0939   -3.1768    8.5116 H   0  0  0  0  0  0  0  0  0  0  0  0
   -2.2824   -1.3064   -0.3901 H   0  0  0  0  0  0  0  0  0  0  0  0
    0.7188   -1.2233    2.4377 H   0  0  0  0  0  0  0  0  0  0  0  0
   -0.2676   -2.7454    2.5137 H   0  0  0  0  0  0  0  0  0  0  0  0
   -0.7067   -1.9478   -2.7856 H   0  0  0  0  0  0  0  0  0  0  0  0
    0.6486   -3.0956   -2.4572 H   0  0  0  0  0  0  0  0  0  0  0  0
    0.8711   -1.3493   -2.1398 H   0  0  0  0  0  0  0  0  0  0  0  0
   -1.5851   -3.8903    0.3970 H   0  0  0  0  0  0  0  0  0  0  0  0
   -0.6408   -4.5385   -0.9767 H   0  0  0  0  0  0  0  0  0  0  0  0
   -2.1292   -3.5653   -1.2875 H   0  0  0  0  0  0  0  0  0  0  0  0
    0.0765    2.0697   -0.1241 H   0  0  0  0  0  0  0  0  0  0  0  0
    1.2749    0.4827    1.6630 H   0  0  0  0  0  0  0  0  0  0  0  0
   -0.3812   -0.0888    1.9522 H   0  0  0  0  0  0  0  0  0  0  0  0
    1.1568    5.1116    3.2910 H   0  0  0  0  0  0  0  0  0  0  0  0
   -0.7052    4.9934    4.8956 H   0  0  0  0  0  0  0  0  0  0  0  0
   -2.1423    2.9826    4.9981 H   0  0  0  0  0  0  0  0  0  0  0  0
   -1.7224    1.0755    3.5030 H   0  0  0  0  0  0  0  0  0  0  0  0
    2.6544    2.3988    1.6199 H   0  0  0  0  0  0  0  0  0  0  0  0
    2.5176    4.1875    1.6201 H   0  0  0  0  0  0  0  0  0  0  0  0
    1.5493    3.2352    0.4501 H   0  0  0  0  0  0  0  0  0  0  0  0
  1  2  4  0
  2  3  4  0
  3  4  4  0
  4  5  4  0
  1  6  4  0
  5  6  4  0
  5  7  1  0
  4  8  1  0
  6  9  1  0
  8 10  2  0
  8 12  1  0
 11 13  2  0
 11 14  1  0
 15 16  1  0
 12 18  1  0
 18 16  1  0
 14 18  1  0
 14 19  1  0
 15 20  4  0
 15 21  4  0
 20 22  4  0
 17 22  4  0
 17 23  4  0
 21 23  4  0
 11 25  1  0
 24 26  2  0
 25 27  1  0
 27 24  1  0
 27 28  1  0
 25 29  1  0
 28 30  1  1
 28 31  1  0
 29 32  1  0
 28 32  1  0
 24 33  1  0
 33 34  1  0
 34 35  1  0
 35 36  4  0
 36 37  4  0
 37 38  4  0
 38 39  4  0
 35 40  4  0
 39 40  4  0
 36 41  1  0
  1 42  1  0
  2 43  1  0
  3 44  1  0
  7 45  1  0
  7 46  1  0
  7 47  1  0
  9 48  1  0
 12 49  1  0
 14 50  1  6
 16 51  1  0
 16 52  1  0
 17 53  1  0
 18 54  1  6
 19 55  1  0
 20 56  1  0
 21 57  1  0
 22 58  1  0
 23 59  1  0
 27 60  1  6
 29 61  1  0
 29 62  1  0
 30 63  1  0
 30 64  1  0
 30 65  1  0
 31 66  1  0
 31 67  1  0
 31 68  1  0
 33 69  1  0
 34 70  1  0
 34 71  1  0
 37 72  1  0
 38 73  1  0
 39 74  1  0
 40 75  1  0
 41 76  1  0
 41 77  1  0
 41 78  1  0
M  END
