1N2V_BDI_A_900
     RDKit          3D

 27 28  0  0  0  0  0  0  0  0999 V2000
   16.6245   18.3129   19.3273 N   0  0  0  0  0  0  0  0  0  0  0  0
   16.6827   17.1519   18.6198 C   0  0  0  0  0  0  0  0  0  0  0  0
   17.1340   17.0899   17.1923 C   0  0  1  0  0  0  0  0  0  0  0  0
   15.9474   17.0742   16.2157 C   0  0  2  0  0  0  0  0  0  0  0  0
   14.5761   16.8948   16.8916 C   0  0  2  0  0  0  0  0  0  0  0  0
   14.1558   18.1114   17.7154 C   0  0  2  0  0  0  0  0  0  0  0  0
   16.2405   16.0690   19.3072 N   0  0  0  0  0  0  0  0  0  0  0  0
   15.8992   16.5723   20.4997 C   0  0  0  0  0  0  0  0  0  0  0  0
   15.3757   15.9288   21.6128 C   0  0  0  0  0  0  0  0  0  0  0  0
   15.1043   16.6893   22.7174 N   0  0  0  0  0  0  0  0  0  0  0  0
   15.3322   18.0149   22.7301 N   0  0  0  0  0  0  0  0  0  0  0  0
   15.8454   18.6629   21.6392 C   0  0  0  0  0  0  0  0  0  0  0  0
   16.0518   19.9056   21.6620 O   0  0  0  0  0  0  0  0  0  0  0  0
   16.1291   17.9064   20.5102 C   0  0  0  0  0  0  0  0  0  0  0  0
   15.1561   14.6881   21.6102 O   0  0  0  0  0  0  0  0  0  0  0  0
   17.8110   17.9411   16.9697 H   0  0  0  0  0  0  0  0  0  0  0  0
   17.7247   16.1597   17.0496 H   0  0  0  0  0  0  0  0  0  0  0  0
   16.0934   16.2477   15.4862 H   0  0  0  0  0  0  0  0  0  0  0  0
   15.9478   18.0228   15.6359 H   0  0  0  0  0  0  0  0  0  0  0  0
   14.5752   15.9899   17.5362 H   0  0  0  0  0  0  0  0  0  0  0  0
   13.8161   16.7338   16.0968 H   0  0  0  0  0  0  0  0  0  0  0  0
   13.4144   18.7220   17.1576 H   0  0  0  0  0  0  0  0  0  0  0  0
   15.0369   18.7365   17.9690 H   0  0  0  0  0  0  0  0  0  0  0  0
   13.6911   17.7710   18.6646 H   0  0  0  0  0  0  0  0  0  0  0  0
   16.1725   15.0797   18.9793 H   0  0  0  0  0  0  0  0  0  0  0  0
   14.7102   16.2316   23.5704 H   0  0  0  0  0  0  0  0  0  0  0  0
   15.1107   18.5616   23.5930 H   0  0  0  0  0  0  0  0  0  0  0  0
  1  2  2  0
  2  3  1  0
  3  4  1  0
  4  5  1  0
  5  6  1  0
  2  7  1  0
  7  8  1  0
  8  9  1  0
  9 10  1  0
 10 11  1  0
 11 12  1  0
 12 13  2  0
  1 14  1  0
  8 14  2  0
 12 14  1  0
  9 15  2  0
  3 16  1  6
  3 17  1  0
  4 18  1  6
  4 19  1  0
  5 20  1  1
  5 21  1  0
  6 22  1  6
  6 23  1  0
  6 24  1  0
  7 25  1  0
 10 26  1  0
 11 27  1  0
M  END
