7UTW_NAI_A_403
     RDKit          3D

 73 77  0  0  0  0  0  0  0  0999 V2000
    1.3037    0.2576   -1.5994 P   0  0  1  0  0  5  0  0  0  0  0  0
    2.7266    0.7747   -1.6521 O   0  0  0  0  0  0  0  0  0  0  0  0
    0.2742    1.5320   -1.1719 O   0  0  0  0  0  0  0  0  0  0  0  0
    0.8402   -0.3601   -3.1237 O   0  0  0  0  0  0  0  0  0  0  0  0
    1.7966    0.0365   -4.0758 C   0  0  0  0  0  0  0  0  0  0  0  0
    2.9972   -0.9200   -4.0182 C   0  0  2  0  0  0  0  0  0  0  0  0
    2.6411   -2.0834   -3.3015 O   0  0  0  0  0  0  0  0  0  0  0  0
    4.2031   -0.2809   -3.3389 C   0  0  2  0  0  0  0  0  0  0  0  0
    5.3795   -0.8356   -3.8737 O   0  0  0  0  0  0  0  0  0  0  0  0
    4.0000   -0.6929   -1.8980 C   0  0  2  0  0  0  0  0  0  0  0  0
    5.2072   -0.8224   -1.1825 O   0  0  0  0  0  0  0  0  0  0  0  0
    3.2124   -2.0079   -2.0083 C   0  0  1  0  0  0  0  0  0  0  0  0
    2.1559   -2.1084   -0.9918 N   0  0  0  0  0  4  0  0  0  0  0  0
    1.8575   -1.1944   -0.0296 C   0  0  0  0  0  0  0  0  0  0  0  0
    0.7397   -1.4997    0.6852 N   0  0  0  0  0  0  0  0  0  0  0  0
    0.3293   -2.6496    0.1178 C   0  0  0  0  0  0  0  0  0  0  0  0
   -0.7918   -3.4220    0.4006 C   0  0  0  0  0  0  0  0  0  0  0  0
   -1.6902   -3.0877    1.4588 N   0  0  0  0  0  0  0  0  0  0  0  0
   -1.0055   -4.5320   -0.3690 N   0  0  0  0  0  0  0  0  0  0  0  0
   -0.1615   -4.8610   -1.3979 C   0  0  0  0  0  0  0  0  0  0  0  0
    0.9335   -4.0879   -1.6708 N   0  0  0  0  0  0  0  0  0  0  0  0
    1.1596   -3.0032   -0.8909 C   0  0  0  0  0  0  0  0  0  0  0  0
    1.1908   -0.9413   -0.3941 O   0  0  0  0  0  0  0  0  0  0  0  0
    2.6660   -0.9670    0.4535 P   0  0  1  0  0  5  0  0  0  0  0  0
    3.2574   -2.5516    0.5878 O   0  0  0  0  0  0  0  0  0  0  0  0
    3.6678   -0.1494   -0.3303 O   0  0  0  0  0  0  0  0  0  0  0  0
    2.4415   -0.2389    1.9818 O   0  0  0  0  0  0  0  0  0  0  0  0
    1.1981    0.4222    2.0023 C   0  0  0  0  0  0  0  0  0  0  0  0
    0.6475    0.5231    0.5766 C   0  0  2  0  0  0  0  0  0  0  0  0
   -0.5122   -0.2659    0.4602 O   0  0  0  0  0  0  0  0  0  0  0  0
    1.6327    0.0404   -0.4804 C   0  0  2  0  0  0  0  0  0  0  0  0
    2.5158    1.0611   -0.8773 O   0  0  0  0  0  0  0  0  0  0  0  0
    0.7140   -0.3776   -1.6099 C   0  0  2  0  0  0  0  0  0  0  0  0
    0.6076    0.6088   -2.6130 O   0  0  0  0  0  0  0  0  0  0  0  0
   -0.6358   -0.6067   -0.9060 C   0  0  1  0  0  0  0  0  0  0  0  0
   -1.0620   -2.0070   -1.0412 N   0  0  0  0  0  0  0  0  0  0  0  0
   -0.2517   -2.9467   -1.7742 C   0  0  0  0  0  0  0  0  0  0  0  0
   -0.6499   -4.2198   -1.9534 C   0  0  0  0  0  0  0  0  0  0  0  0
    0.1870   -5.1576   -2.7511 C   0  0  0  0  0  0  0  0  0  0  0  0
    1.0664   -4.7088   -3.5350 O   0  0  0  0  0  0  0  0  0  0  0  0
    0.0116   -6.5744   -2.6621 N   0  0  0  0  0  0  0  0  0  0  0  0
   -1.9327   -4.7190   -1.3152 C   0  0  0  0  0  0  0  0  0  0  0  0
   -2.8119   -3.6336   -0.7637 C   0  0  0  0  0  0  0  0  0  0  0  0
   -2.3803   -2.3826   -0.6172 C   0  0  0  0  0  0  0  0  0  0  0  0
   -0.6241    1.1203   -1.1278 H   0  0  0  0  0  0  0  0  0  0  0  0
    1.3620   -0.0077   -5.0994 H   0  0  0  0  0  0  0  0  0  0  0  0
    2.1562    1.0701   -3.8643 H   0  0  0  0  0  0  0  0  0  0  0  0
    3.2615   -1.2066   -5.0593 H   0  0  0  0  0  0  0  0  0  0  0  0
    4.2119    0.8304   -3.4503 H   0  0  0  0  0  0  0  0  0  0  0  0
    6.1165   -0.2106   -3.6483 H   0  0  0  0  0  0  0  0  0  0  0  0
    3.3769    0.0857   -1.4032 H   0  0  0  0  0  0  0  0  0  0  0  0
    5.7057   -1.6017   -1.5420 H   0  0  0  0  0  0  0  0  0  0  0  0
    3.8929   -2.8787   -1.8907 H   0  0  0  0  0  0  0  0  0  0  0  0
    2.4320   -0.2973    0.1404 H   0  0  0  0  0  0  0  0  0  0  0  0
   -1.5477   -2.2275    2.0341 H   0  0  0  0  0  0  0  0  0  0  0  0
   -2.5071   -3.7024    1.6693 H   0  0  0  0  0  0  0  0  0  0  0  0
   -0.3650   -5.7369   -1.9988 H   0  0  0  0  0  0  0  0  0  0  0  0
    2.7562   -2.9584    1.3376 H   0  0  0  0  0  0  0  0  0  0  0  0
    1.2956    1.4607    2.3955 H   0  0  0  0  0  0  0  0  0  0  0  0
    0.4741   -0.1419    2.6304 H   0  0  0  0  0  0  0  0  0  0  0  0
    0.3740    1.5845    0.3776 H   0  0  0  0  0  0  0  0  0  0  0  0
    2.1840   -0.8594   -0.1191 H   0  0  0  0  0  0  0  0  0  0  0  0
    3.3463    0.9514   -0.3454 H   0  0  0  0  0  0  0  0  0  0  0  0
    1.0971   -1.3110   -2.0787 H   0  0  0  0  0  0  0  0  0  0  0  0
    0.2785    1.4455   -2.1896 H   0  0  0  0  0  0  0  0  0  0  0  0
   -1.4153    0.0581   -1.3428 H   0  0  0  0  0  0  0  0  0  0  0  0
    0.6820   -2.6051   -2.2053 H   0  0  0  0  0  0  0  0  0  0  0  0
    0.5785   -7.2075   -3.2706 H   0  0  0  0  0  0  0  0  0  0  0  0
   -0.6589   -7.0100   -1.9937 H   0  0  0  0  0  0  0  0  0  0  0  0
   -2.5213   -5.2790   -2.0730 H   0  0  0  0  0  0  0  0  0  0  0  0
   -1.6737   -5.4115   -0.4860 H   0  0  0  0  0  0  0  0  0  0  0  0
   -3.8060   -3.8919   -0.4272 H   0  0  0  0  0  0  0  0  0  0  0  0
   -3.0427   -1.6449   -0.1812 H   0  0  0  0  0  0  0  0  0  0  0  0
  1  2  2  0
  1  3  1  6
  1  4  1  0
  4  5  1  0
  6  5  1  0
  6  7  1  0
  6  8  1  0
  8  9  1  0
  8 10  1  0
 10 11  1  0
  7 12  1  0
 10 12  1  0
 12 13  1  0
 13 14  4  0
 14 15  4  0
 15 16  4  0
 16 17  4  0
 17 18  1  0
 17 19  4  0
 19 20  4  0
 20 21  4  0
 13 22  4  0
 16 22  4  0
 21 22  4  0
  1 23  1  0
 24 23  1  1
 24 25  1  0
 24 26  2  0
 24 27  1  0
 27 28  1  0
 29 28  1  0
 29 30  1  0
 29 31  1  0
 31 32  1  0
 31 33  1  0
 33 34  1  0
 30 35  1  0
 33 35  1  0
 35 36  1  0
 36 37  1  0
 37 38  2  0
 38 39  1  0
 39 40  2  0
 39 41  1  0
 38 42  1  0
 42 43  1  0
 36 44  1  0
 43 44  2  0
  3 45  1  0
  5 46  1  0
  5 47  1  0
  6 48  1  1
  8 49  1  6
  9 50  1  0
 10 51  1  6
 11 52  1  0
 12 53  1  6
 14 54  1  0
 18 55  1  0
 18 56  1  0
 20 57  1  0
 25 58  1  0
 28 59  1  0
 28 60  1  0
 29 61  1  1
 31 62  1  6
 32 63  1  0
 33 64  1  1
 34 65  1  0
 35 66  1  1
 37 67  1  0
 41 68  1  0
 41 69  1  0
 42 70  1  0
 42 71  1  0
 43 72  1  0
 44 73  1  0
M  CHG  1  13   1
M  END
