7SGV_L30_A_501
     RDKit          3D

 31 33  0  0  0  0  0  0  0  0999 V2000
    0.1171   73.7096   36.5328 O   0  0  0  0  0  0  0  0  0  0  0  0
   -0.5042   74.6129   37.1579 C   0  0  0  0  0  0  0  0  0  0  0  0
   -1.2698   75.6303   36.3989 C   0  0  0  0  0  0  0  0  0  0  0  0
   -1.9215   76.6911   37.0515 C   0  0  0  0  0  0  0  0  0  0  0  0
   -2.6434   77.6311   36.3141 C   0  0  0  0  0  0  0  0  0  0  0  0
   -2.7158   77.5042   34.9269 C   0  0  0  0  0  0  0  0  0  0  0  0
   -2.0910   76.4701   34.3056 N   0  0  0  0  0  0  0  0  0  0  0  0
   -1.3821   75.5404   35.0000 C   0  0  0  0  0  0  0  0  0  0  0  0
   -0.4456   74.6501   38.5934 N   0  0  0  0  0  0  0  0  0  0  0  0
   -0.1308   73.4856   39.3722 C   0  0  0  0  0  0  0  0  0  0  0  0
    0.7276   73.6271   40.4712 C   0  0  0  0  0  0  0  0  0  0  0  0
    1.0955   72.5191   41.2348 C   0  0  0  0  0  0  0  0  0  0  0  0
    0.6023   71.2532   40.9199 C   0  0  0  0  0  0  0  0  0  0  0  0
   -0.2833   71.0876   39.8455 C   0  0  0  0  0  0  0  0  0  0  0  0
   -0.7998   69.8168   39.5478 C   0  0  0  0  0  0  0  0  0  0  0  0
   -1.7071   69.6544   38.4997 C   0  0  0  0  0  0  0  0  0  0  0  0
   -2.1135   70.7567   37.7472 C   0  0  0  0  0  0  0  0  0  0  0  0
   -1.6065   72.0280   38.0283 C   0  0  0  0  0  0  0  0  0  0  0  0
   -0.6699   72.2108   39.0660 C   0  0  0  0  0  0  0  0  0  0  0  0
   -1.8942   76.7866   38.1289 H   0  0  0  0  0  0  0  0  0  0  0  0
   -3.1475   78.4480   36.8144 H   0  0  0  0  0  0  0  0  0  0  0  0
   -3.2726   78.2255   34.3439 H   0  0  0  0  0  0  0  0  0  0  0  0
   -0.9001   74.7373   34.4574 H   0  0  0  0  0  0  0  0  0  0  0  0
   -0.3721   75.5793   39.0649 H   0  0  0  0  0  0  0  0  0  0  0  0
    1.1306   74.6005   40.7217 H   0  0  0  0  0  0  0  0  0  0  0  0
    1.7707   72.6416   42.0719 H   0  0  0  0  0  0  0  0  0  0  0  0
    0.9033   70.4053   41.5239 H   0  0  0  0  0  0  0  0  0  0  0  0
   -0.5076   68.9510   40.1305 H   0  0  0  0  0  0  0  0  0  0  0  0
   -2.1047   68.6727   38.2768 H   0  0  0  0  0  0  0  0  0  0  0  0
   -2.8290   70.6269   36.9455 H   0  0  0  0  0  0  0  0  0  0  0  0
   -1.9643   72.8610   37.4389 H   0  0  0  0  0  0  0  0  0  0  0  0
  1  2  2  0
  2  3  1  0
  3  4  2  0
  4  5  1  0
  5  6  2  0
  6  7  1  0
  7  8  2  0
  3  8  1  0
  2  9  1  0
  9 10  1  0
 10 11  2  0
 11 12  1  0
 12 13  2  0
 13 14  1  0
 14 15  2  0
 15 16  1  0
 16 17  2  0
 17 18  1  0
 18 19  2  0
 14 19  1  0
 10 19  1  0
  4 20  1  0
  5 21  1  0
  6 22  1  0
  8 23  1  0
  9 24  1  0
 11 25  1  0
 12 26  1  0
 13 27  1  0
 15 28  1  0
 16 29  1  0
 17 30  1  0
 18 31  1  0
M  END
