7T1D_E7K_B_1010
     RDKit          3D

 34 39  0  0  0  0  0  0  0  0999 V2000
   17.5369  -11.2165   36.5166 N   0  0  0  0  0  0  0  0  0  0  0  0
   14.5031   -9.9935   46.2986 N   0  0  0  0  0  0  0  0  0  0  0  0
   18.0730   -8.7967   36.9735 C   0  0  0  0  0  0  0  0  0  0  0  0
   16.2540   -9.5724   39.3751 C   0  0  0  0  0  0  0  0  0  0  0  0
   15.7584   -8.2948   39.2153 C   0  0  0  0  0  0  0  0  0  0  0  0
   15.3722   -7.5058   40.3019 C   0  0  0  0  0  0  0  0  0  0  0  0
   15.4796   -7.9984   41.6040 C   0  0  0  0  0  0  0  0  0  0  0  0
   14.3051   -8.1271   43.7118 C   0  0  0  0  0  0  0  0  0  0  0  0
   16.3559  -10.0487   40.6650 C   0  0  0  0  0  0  0  0  0  0  0  0
   14.5397  -10.9009   47.2419 C   0  0  0  0  0  0  0  0  0  0  0  0
   15.4429  -13.2766   47.7558 C   0  0  0  0  0  0  0  0  0  0  0  0
   12.8923  -15.8024   46.5500 C   0  0  0  0  0  0  0  0  0  0  0  0
   13.6813  -16.6271   45.7791 C   0  0  0  0  0  0  0  0  0  0  0  0
   15.0331  -16.3521   45.6769 C   0  0  0  0  0  0  0  0  0  0  0  0
   14.0561  -18.6584   44.5149 C   0  0  0  0  0  0  0  0  0  0  0  0
   12.0054  -19.2778   44.0583 C   0  0  0  0  0  0  0  0  0  0  0  0
   17.4411  -10.1046   37.2561 C   0  0  0  0  0  0  0  0  0  0  0  0
   16.8408  -12.2153   37.0667 C   0  0  0  0  0  0  0  0  0  0  0  0
   16.7228  -13.5987   36.5224 C   0  0  0  0  0  0  0  0  0  0  0  0
   16.6566  -10.4079   38.3128 N   0  0  0  0  0  0  0  0  0  0  0  0
   16.2647  -11.7111   38.2279 C   0  0  0  0  0  0  0  0  0  0  0  0
   15.9737   -9.2689   41.7464 C   0  0  0  0  0  0  0  0  0  0  0  0
   16.1099   -9.8309   43.0860 C   0  0  0  0  0  0  0  0  0  0  0  0
   15.1146   -9.2956   43.9690 N   0  0  0  0  0  0  0  0  0  0  0  0
   15.0932   -7.2185   42.7987 C   0  0  0  0  0  0  0  0  0  0  0  0
   14.9472  -10.0507   45.2207 C   0  0  0  0  0  0  0  0  0  0  0  0
   15.7097  -11.7979   45.2467 S   0  0  0  0  0  0  0  0  0  0  0  0
   15.1691  -12.0485   46.9350 C   0  0  0  0  0  0  0  0  0  0  0  0
   14.7721  -14.4153   47.1308 C   0  0  0  0  0  0  0  0  0  0  0  0
   15.5431  -15.2641   46.3472 C   0  0  0  0  0  0  0  0  0  0  0  0
   13.4226  -14.6972   47.2289 C   0  0  0  0  0  0  0  0  0  0  0  0
   13.1970  -17.7467   45.0584 N   0  0  0  0  0  0  0  0  0  0  0  0
   11.9772  -18.1383   44.7718 N   0  0  0  0  0  0  0  0  0  0  0  0
   13.3396  -19.6494   43.8690 C   0  0  0  0  0  0  0  0  0  0  0  0
  4  5  2  0
  5  6  1  0
  6  7  2  0
  4  9  1  0
  2 10  1  0
 12 13  2  0
 13 14  1  0
  1 17  2  0
  3 17  1  0
  1 18  1  0
 18 19  1  0
 17 20  1  0
  4 20  1  0
 18 21  2  0
 20 21  1  0
  9 22  2  0
  7 22  1  0
 22 23  1  0
 23 24  1  0
  8 24  1  0
  7 25  1  0
  8 25  1  0
 24 26  1  0
  2 26  2  0
 26 27  1  0
 10 28  2  0
 27 28  1  0
 11 28  1  0
 11 29  1  0
 29 30  1  0
 14 30  2  0
 29 31  2  0
 12 31  1  0
 13 32  1  0
 15 32  1  0
 32 33  1  0
 16 33  2  0
 15 34  2  0
 16 34  1  0
M  END
$$$$
