7PIH_7QW_A_401
     RDKit          3D

 45 48  0  0  0  0  0  0  0  0999 V2000
   -1.4088   -2.6894   -1.1825 O   0  0  0  0  0  0  0  0  0  0  0  0
   -2.2457   -3.5659   -1.8779 C   0  0  0  0  0  0  0  0  0  0  0  0
   -3.4980   -3.7621   -1.3851 N   0  0  0  0  0  0  0  0  0  0  0  0
   -4.3955   -4.5904   -1.9761 C   0  0  0  0  0  0  0  0  0  0  0  0
   -4.0523   -5.2814   -3.1341 C   0  0  0  0  0  0  0  0  0  0  0  0
   -2.7758   -5.1147   -3.6841 C   0  0  0  0  0  0  0  0  0  0  0  0
   -1.8450   -4.2469   -3.0573 C   0  0  0  0  0  0  0  0  0  0  0  0
   -0.5665   -4.0993   -3.6313 C   0  0  0  0  0  0  0  0  0  0  0  0
   -0.2242   -4.7950   -4.7933 C   0  0  0  0  0  0  0  0  0  0  0  0
   -2.4204   -5.8075   -4.8516 C   0  0  0  0  0  0  0  0  0  0  0  0
   -1.1437   -5.6539   -5.4148 C   0  0  0  0  0  0  0  0  0  0  0  0
   -0.7703   -6.3867   -6.6512 C   0  0  0  0  0  0  0  0  0  0  0  0
    0.4633   -7.0536   -6.7414 C   0  0  0  0  0  0  0  0  0  0  0  0
    0.8155   -7.7308   -7.9097 C   0  0  0  0  0  0  0  0  0  0  0  0
   -0.0645   -7.7696   -8.9923 C   0  0  0  0  0  0  0  0  0  0  0  0
   -1.6480   -6.4242   -7.7498 C   0  0  0  0  0  0  0  0  0  0  0  0
   -1.3219   -7.1476   -8.9109 C   0  0  0  0  0  0  0  0  0  0  0  0
   -2.2807   -7.1871  -10.0888 C   0  0  0  0  0  0  0  0  0  0  0  0
   -1.8720   -6.3670  -11.2546 N   0  0  0  0  0  0  0  0  0  0  0  0
   -1.3213   -7.1193  -12.3912 C   0  0  0  0  0  0  0  0  0  0  0  0
   -0.2356   -6.2600  -13.0138 C   0  0  0  0  0  0  0  0  0  0  0  0
   -0.9689   -5.2440  -10.9602 C   0  0  0  0  0  0  0  0  0  0  0  0
    0.2431   -5.3676  -11.8786 C   0  0  1  0  0  0  0  0  0  0  0  0
    1.3758   -5.9625  -11.1617 N   0  0  0  0  0  0  0  0  0  0  0  0
   -0.4616   -2.4670   -1.4511 H   0  0  0  0  0  0  0  0  0  0  0  0
   -5.3797   -4.7121   -1.5438 H   0  0  0  0  0  0  0  0  0  0  0  0
   -4.7785   -5.9398   -3.5962 H   0  0  0  0  0  0  0  0  0  0  0  0
    0.1846   -3.4526   -3.2071 H   0  0  0  0  0  0  0  0  0  0  0  0
    0.7610   -4.6461   -5.2184 H   0  0  0  0  0  0  0  0  0  0  0  0
   -3.1337   -6.4812   -5.3129 H   0  0  0  0  0  0  0  0  0  0  0  0
    1.1535   -7.0548   -5.9071 H   0  0  0  0  0  0  0  0  0  0  0  0
    1.7753   -8.2267   -7.9771 H   0  0  0  0  0  0  0  0  0  0  0  0
    0.2438   -8.2762   -9.8977 H   0  0  0  0  0  0  0  0  0  0  0  0
   -2.5789   -5.8722   -7.7090 H   0  0  0  0  0  0  0  0  0  0  0  0
   -3.2876   -6.8541   -9.7546 H   0  0  0  0  0  0  0  0  0  0  0  0
   -2.4152   -8.2402  -10.4198 H   0  0  0  0  0  0  0  0  0  0  0  0
   -2.1252   -7.3257  -13.1294 H   0  0  0  0  0  0  0  0  0  0  0  0
   -0.8715   -8.0823  -12.0862 H   0  0  0  0  0  0  0  0  0  0  0  0
   -0.6784   -5.6299  -13.8168 H   0  0  0  0  0  0  0  0  0  0  0  0
    0.5816   -6.8768  -13.4480 H   0  0  0  0  0  0  0  0  0  0  0  0
   -0.6700   -5.1778   -9.8964 H   0  0  0  0  0  0  0  0  0  0  0  0
   -1.5070   -4.3015  -11.1994 H   0  0  0  0  0  0  0  0  0  0  0  0
    0.5415   -4.3673  -12.2650 H   0  0  0  0  0  0  0  0  0  0  0  0
    1.1563   -6.9532  -10.9069 H   0  0  0  0  0  0  0  0  0  0  0  0
    2.1997   -5.9839  -11.8056 H   0  0  0  0  0  0  0  0  0  0  0  0
  1  2  1  0
  2  3  4  0
  3  4  4  0
  4  5  4  0
  5  6  4  0
  6  7  4  0
  2  7  4  0
  7  8  4  0
  8  9  4  0
  6 10  4  0
  9 11  4  0
 10 11  4  0
 11 12  1  0
 12 13  4  0
 13 14  4  0
 14 15  4  0
 12 16  4  0
 15 17  4  0
 16 17  4  0
 17 18  1  0
 18 19  1  0
 19 20  1  0
 20 21  1  0
 19 22  1  0
 22 23  1  0
 21 23  1  0
 23 24  1  0
  1 25  1  0
  4 26  1  0
  5 27  1  0
  8 28  1  0
  9 29  1  0
 10 30  1  0
 13 31  1  0
 14 32  1  0
 15 33  1  0
 16 34  1  0
 18 35  1  0
 18 36  1  0
 20 37  1  0
 20 38  1  0
 21 39  1  0
 21 40  1  0
 22 41  1  0
 22 42  1  0
 23 43  1  1
 24 44  1  0
 24 45  1  0
M  END
