7OSO_0V1_A_504
     RDKit          3D

  7  6  0  0  0  0  0  0  0  0999 V2000
   39.8665   17.8641   10.9966 C   0  0  0  0  0  0  0  0  0  0  0  0
   40.6694   19.0807   10.8114 C   0  0  2  0  0  0  0  0  0  0  0  0
   41.3835   19.6462   11.9540 C   0  0  0  0  0  0  0  0  0  0  0  0
   42.3060   20.7951   11.6880 C   0  0  0  0  0  0  0  0  0  0  0  0
   42.9852   21.1913   12.8630 O   0  0  0  0  0  0  0  0  0  0  0  0
   39.8635   20.0667   10.2364 O   0  0  0  0  0  0  0  0  0  0  0  0
   39.1571   17.8949   12.1966 O   0  0  0  0  0  0  0  0  0  0  0  0
  1  2  1  0
  2  3  1  0
  3  4  1  1
  4  5  1  1
  2  6  1  1
  1  7  1  1
M  END
$$$$
