7MY1_IPE_AAA_401
     RDKit          3D

 26 25  0  0  0  0  0  0  0  0999 V2000
   12.1732    9.6374   14.4071 C   0  0  2  0  0  0  0  0  0  0  0  0
   12.8698    9.9060   15.6019 O   0  0  0  0  0  0  0  0  0  0  0  0
   11.1882    8.4903   14.6339 C   0  0  1  0  0  0  0  0  0  0  0  0
   11.8231    7.1508   14.3360 C   0  0  0  0  0  0  0  0  0  0  0  0
   12.6875    7.0224   13.3187 C   0  0  0  0  0  0  0  0  0  0  0  0
   11.5053    5.9560   15.1936 C   0  0  2  0  0  0  0  0  0  0  0  0
   13.9419    8.6133   15.9055 P   0  0  1  0  0  5  0  0  0  0  0  0
   13.3564    7.3311   15.3566 O   0  0  0  0  0  0  0  0  0  0  0  0
   15.4068    8.9103   15.1103 O   0  0  0  0  0  0  0  0  0  0  0  0
   14.2019    8.4226   17.5781 O   0  0  0  0  0  0  0  0  0  0  0  0
   15.8815    8.4801   17.8533 P   0  0  2  0  0  5  0  0  0  0  0  0
   16.1428    9.0353   19.4303 O   0  0  0  0  0  0  0  0  0  0  0  0
   16.5530    9.4293   16.8846 O   0  0  0  0  0  0  0  0  0  0  0  0
   16.5558    6.9342   17.7010 O   0  0  0  0  0  0  0  0  0  0  0  0
   12.8763    9.3228   13.6029 H   0  0  0  0  0  0  0  0  0  0  0  0
   11.6043   10.5324   14.0662 H   0  0  0  0  0  0  0  0  0  0  0  0
   10.8488    8.5159   15.6920 H   0  0  0  0  0  0  0  0  0  0  0  0
   10.2840    8.6400   14.0033 H   0  0  0  0  0  0  0  0  0  0  0  0
   13.1540    6.0656   13.1031 H   0  0  0  0  0  0  0  0  0  0  0  0
   12.9390    7.8710   12.6895 H   0  0  0  0  0  0  0  0  0  0  0  0
   12.1563    5.9551   16.0934 H   0  0  0  0  0  0  0  0  0  0  0  0
   11.6778    5.0227   14.6170 H   0  0  0  0  0  0  0  0  0  0  0  0
   10.4473    5.9738   15.5299 H   0  0  0  0  0  0  0  0  0  0  0  0
   15.8337    9.6369   15.6306 H   0  0  0  0  0  0  0  0  0  0  0  0
   17.0506    9.4311   19.4136 H   0  0  0  0  0  0  0  0  0  0  0  0
   15.7801    6.3270   17.5990 H   0  0  0  0  0  0  0  0  0  0  0  0
  1  2  1  0
  1  3  1  0
  3  4  1  0
  4  5  2  0
  4  6  1  0
  7  2  1  1
  7  8  2  0
  7  9  1  0
  7 10  1  0
 11 10  1  6
 11 12  1  0
 11 13  2  0
 11 14  1  0
  1 15  1  6
  1 16  1  0
  3 17  1  1
  3 18  1  0
  5 19  1  0
  5 20  1  0
  6 21  1  1
  6 22  1  0
  6 23  1  0
  9 24  1  0
 12 25  1  0
 14 26  1  0
M  END
