1L2S_STC_B_2115
     RDKit          3D

 27 28  0  0  0  0  0  0  0  0999 V2000
   80.3924    4.4385   28.8530 N   0  0  0  0  0  0  0  0  0  0  0  0
   80.7489    4.4295   30.2190 C   0  0  0  0  0  0  0  0  0  0  0  0
   79.7981    4.0354   31.1880 C   0  0  0  0  0  0  0  0  0  0  0  0
   82.0606    4.8201   30.6140 C   0  0  0  0  0  0  0  0  0  0  0  0
   80.1505    4.0301   32.5556 C   0  0  0  0  0  0  0  0  0  0  0  0
   82.4131    4.8105   31.9855 C   0  0  0  0  0  0  0  0  0  0  0  0
   81.4549    4.4172   32.9547 C   0  0  0  0  0  0  0  0  0  0  0  0
   81.8794    4.4137   34.6465 Cl  0  0  0  0  0  0  0  0  0  0  0  0
   80.1978    5.9561   28.0280 S   0  0  1  0  0  6  0  0  0  0  0  0
   78.5404    6.6937   28.4025 C   0  0  0  0  0  0  0  0  0  0  0  0
   81.2314    6.8409   28.4883 O   0  0  0  0  0  0  0  0  0  0  0  0
   80.3285    5.7483   26.6214 O   0  0  0  0  0  0  0  0  0  0  0  0
   77.9179    6.7798   29.6557 C   0  0  0  0  0  0  0  0  0  0  0  0
   77.6823    7.2689   27.4614 C   0  0  0  0  0  0  0  0  0  0  0  0
   76.6713    7.4189   29.4798 S   0  0  0  0  0  0  0  0  0  0  0  0
   78.4499    6.2971   30.9509 C   0  0  0  0  0  0  0  0  0  0  0  0
   76.5375    7.7084   28.1182 C   0  0  0  0  0  0  0  0  0  0  0  0
   79.4210    6.9534   31.5762 O   0  0  0  0  0  0  0  0  0  0  0  0
   77.9789    5.2787   31.4478 O   0  0  0  0  0  0  0  0  0  0  0  0
   80.2549    3.5912   28.3709 H   0  0  0  0  0  0  0  0  0  0  0  0
   78.8494    3.7523   30.8968 H   0  0  0  0  0  0  0  0  0  0  0  0
   82.7511    5.1088   29.9034 H   0  0  0  0  0  0  0  0  0  0  0  0
   79.4580    3.7442   33.2652 H   0  0  0  0  0  0  0  0  0  0  0  0
   83.3628    5.0884   32.2787 H   0  0  0  0  0  0  0  0  0  0  0  0
   77.8668    7.3533   26.4494 H   0  0  0  0  0  0  0  0  0  0  0  0
   75.7273    8.1698   27.6759 H   0  0  0  0  0  0  0  0  0  0  0  0
   79.7806    7.7310   31.1969 H   0  0  0  0  0  0  0  0  0  0  0  0
  1  2  1  0
  2  3  2  0
  2  4  1  0
  3  5  1  0
  4  6  2  0
  5  7  2  0
  6  7  1  0
  7  8  1  0
  9  1  1  1
  9 10  1  0
  9 11  2  0
  9 12  2  0
 10 13  2  0
 10 14  1  0
 13 15  1  0
 13 16  1  0
 14 17  2  0
 15 17  1  0
 16 18  1  0
 16 19  2  0
  1 20  1  0
  3 21  1  0
  4 22  1  0
  5 23  1  0
  6 24  1  0
 14 25  1  0
 17 26  1  0
 18 27  1  0
M  END
