7F5D_EUO_A_201
     RDKit          3D

 21 23  0  0  0  0  0  0  0  0999 V2000
   10.7350   -5.7732   32.7250 C   0  0  0  0  0  0  0  0  0  0  0  0
   10.0225   -6.1344   34.7660 C   0  0  0  0  0  0  0  0  0  0  0  0
    6.5747   -2.5991   27.1295 C   0  0  0  0  0  0  0  0  0  0  0  0
    5.7841   -4.7949   28.8727 C   0  0  0  0  0  0  0  0  0  0  0  0
    4.5793   -5.4955   30.7519 C   0  0  0  0  0  0  0  0  0  0  0  0
    5.7566   -5.6448   31.4415 C   0  0  0  0  0  0  0  0  0  0  0  0
    6.9678   -5.3668   30.8436 C   0  0  0  0  0  0  0  0  0  0  0  0
    8.2311   -5.5181   31.5565 C   0  0  0  0  0  0  0  0  0  0  0  0
    8.3487   -5.7633   32.8876 C   0  0  0  0  0  0  0  0  0  0  0  0
    9.5830   -5.8935   33.4880 C   0  0  0  0  0  0  0  0  0  0  0  0
   10.6518   -5.5215   31.3554 C   0  0  0  0  0  0  0  0  0  0  0  0
    9.4073   -5.4034   30.8223 C   0  0  0  0  0  0  0  0  0  0  0  0
   11.3827   -6.1566   34.7641 C   0  0  0  0  0  0  0  0  0  0  0  0
    2.1454   -5.5546   30.4449 C   0  0  0  0  0  0  0  0  0  0  0  0
    4.6092   -5.0673   29.4608 N   0  0  0  0  0  0  0  0  0  0  0  0
    6.9240   -4.9472   29.5637 N   0  0  0  0  0  0  0  0  0  0  0  0
   11.8250   -5.9319   33.4941 N   0  0  0  0  0  0  0  0  0  0  0  0
    3.2970   -5.7692   31.3223 N   0  0  0  0  0  0  0  0  0  0  0  0
    4.5812   -4.2607   26.5153 O   0  0  0  0  0  0  0  0  0  0  0  0
    6.8415   -5.1531   26.4711 O   0  0  0  0  0  0  0  0  0  0  0  0
    5.9025   -4.2397   27.2146 S   0  0  1  0  0  0  0  0  0  0  0  0
  5  6  2  0
  6  7  1  0
  7  8  1  0
  8  9  1  0
  2 10  1  0
  9 10  2  0
  1 10  1  0
  1 11  2  0
  8 12  2  0
 11 12  1  0
  2 13  2  0
  4 15  2  0
  5 15  1  0
  4 16  1  0
  7 16  2  0
 13 17  1  0
  1 17  1  0
  5 18  1  0
 14 18  1  0
 21  3  1  1
 20 21  2  0
 19 21  2  0
  4 21  1  0
M  END
$$$$
