7OU8_1XI_BBB_801
     RDKit          3D

 23 25  0  0  0  0  0  0  0  0999 V2000
   -1.7398   54.0510   48.7985 C   0  0  2  0  0  0  0  0  0  0  0  0
   -2.2888   55.4474   48.5408 C   0  0  2  0  0  0  0  0  0  0  0  0
   -1.2893   56.2266   47.6867 C   0  0  1  0  0  0  0  0  0  0  0  0
    0.2157   56.1420   45.7884 N   0  0  0  0  0  0  0  0  0  0  0  0
   -1.7026   53.4553   47.4707 N   0  0  0  0  0  0  0  0  0  0  0  0
   -0.7023   53.9845   46.5774 C   0  0  0  0  0  0  0  0  0  0  0  0
    2.4175   57.1289   45.6747 C   0  0  0  0  0  0  0  0  0  0  0  0
    1.3955   56.3171   46.4126 C   0  0  0  0  0  0  0  0  0  0  0  0
    1.6847   55.7512   47.4785 O   0  0  0  0  0  0  0  0  0  0  0  0
   -0.9395   55.4842   46.3870 C   0  0  1  0  0  0  0  0  0  0  0  0
   -2.7480   52.7196   47.1226 C   0  0  0  0  0  0  0  0  0  0  0  0
   -3.0079   52.4386   45.8511 N   0  0  0  0  0  0  0  0  0  0  0  0
   -4.1980   51.6327   45.5658 C   0  0  0  0  0  0  0  0  0  0  0  0
   -4.2792   51.2083   44.1085 C   0  0  0  0  0  0  0  0  0  0  0  0
   -5.3507   50.4379   43.7015 C   0  0  0  0  0  0  0  0  0  0  0  0
   -5.4750   50.0675   42.3649 C   0  0  0  0  0  0  0  0  0  0  0  0
   -4.5200   50.4364   41.4526 C   0  0  0  0  0  0  0  0  0  0  0  0
   -3.4225   51.1489   41.8481 C   0  0  0  0  0  0  0  0  0  0  0  0
   -3.3188   51.5671   43.1753 C   0  0  0  0  0  0  0  0  0  0  0  0
   -3.7575   52.3379   48.4748 S   0  0  0  0  0  0  0  0  0  0  0  0
   -2.5784   53.0756   49.6277 C   0  0  0  0  0  0  0  0  0  0  0  0
   -2.5095   56.1329   49.7825 O   0  0  0  0  0  0  0  0  0  0  0  0
   -1.8390   57.4846   47.2899 O   0  0  0  0  0  0  0  0  0  0  0  0
  1  2  1  0
  2  3  1  0
  1  5  1  0
  5  6  1  0
  7  8  1  0
  4  8  1  0
  8  9  2  0
 10  4  1  1
  3 10  1  0
  6 10  1  0
  5 11  1  0
 11 12  2  0
 12 13  1  0
 13 14  1  0
 14 15  2  0
 15 16  1  0
 16 17  2  0
 17 18  1  0
 18 19  2  0
 14 19  1  0
 11 20  1  0
  1 21  1  1
 20 21  1  0
  2 22  1  1
  3 23  1  6
M  END
