7JR8_VH7_B_203
     RDKit          3D

 28 31  0  0  0  0  0  0  0  0999 V2000
    0.4087  -16.7279   54.5973 C   0  0  0  0  0  0  0  0  0  0  0  0
    1.4777  -15.8412   55.2115 C   0  0  1  0  0  0  0  0  0  0  0  0
    1.1065  -15.4698   56.6238 C   0  0  0  0  0  0  0  0  0  0  0  0
   -3.8139  -16.0285   55.6402 C   0  0  0  0  0  0  0  0  0  0  0  0
   -2.7558  -15.0760   56.1655 C   0  0  1  0  0  0  0  0  0  0  0  0
   -3.0298  -14.7818   57.6036 C   0  0  0  0  0  0  0  0  0  0  0  0
   -1.3464  -15.6758   56.0613 C   0  0  1  0  0  0  0  0  0  0  0  0
   -0.9539  -16.0678   54.6555 C   0  0  0  0  0  0  0  0  0  0  0  0
   -0.2609  -14.7914   56.6672 C   0  0  0  0  0  0  0  0  0  0  0  0
    3.5208  -16.7009   56.2504 C   0  0  0  0  0  0  0  0  0  0  0  0
    2.8063  -17.2176   57.4262 C   0  0  0  0  0  0  0  0  0  0  0  0
    3.3328  -18.3630   58.1023 C   0  0  0  0  0  0  0  0  0  0  0  0
    2.7024  -18.9064   59.1639 C   0  0  0  0  0  0  0  0  0  0  0  0
    1.5164  -18.3304   59.6404 C   0  0  0  0  0  0  0  0  0  0  0  0
   -0.3064  -17.7406   60.6336 C   0  0  0  0  0  0  0  0  0  0  0  0
   -0.1322  -16.8430   59.6155 C   0  0  0  0  0  0  0  0  0  0  0  0
    1.6566  -16.6640   57.8793 C   0  0  0  0  0  0  0  0  0  0  0  0
   -1.4416  -17.8762   61.5633 C   0  0  0  0  0  0  0  0  0  0  0  0
   -2.6535  -17.2450   61.2945 C   0  0  0  0  0  0  0  0  0  0  0  0
   -3.7507  -17.4569   62.1085 C   0  0  0  0  0  0  0  0  0  0  0  0
   -3.6637  -18.3157   63.1842 C   0  0  0  0  0  0  0  0  0  0  0  0
   -2.4827  -18.9758   63.4415 C   0  0  0  0  0  0  0  0  0  0  0  0
   -1.3762  -18.7677   62.6314 C   0  0  0  0  0  0  0  0  0  0  0  0
    2.7788  -16.4972   55.1567 N   0  0  0  0  0  0  0  0  0  0  0  0
    0.7207  -18.6759   60.6485 N   0  0  0  0  0  0  0  0  0  0  0  0
    1.0360  -17.2078   58.9814 N   0  0  0  0  0  0  0  0  0  0  0  0
   -2.8611  -13.8186   55.4493 O   0  0  0  0  0  0  0  0  0  0  0  0
    4.7442  -16.5484   56.2550 O   0  0  0  0  0  0  0  0  0  0  0  0
  1  2  1  0
  2  3  1  0
  5  4  1  6
  5  6  1  0
  7  5  1  0
  1  8  1  0
  7  8  1  6
  3  9  1  0
  7  9  1  0
 10 11  1  0
 11 12  1  0
 12 13  2  0
 13 14  1  0
 15 16  2  0
 11 17  2  0
 15 18  1  0
 18 19  2  0
 19 20  1  0
 20 21  2  0
 21 22  1  0
 22 23  2  0
 18 23  1  0
 10 24  1  0
  2 24  1  1
 15 25  1  0
 14 25  2  0
 16 26  1  0
 14 26  1  0
 17 26  1  0
  5 27  1  0
 10 28  2  0
M  END
