7TBU_S3P_A_902
     RDKit          3D

 16 16  0  0  0  0  0  0  0  0999 V2000
   19.8181   93.8621   14.3066 C   0  0  0  0  0  0  0  0  0  0  0  0
   18.4257   94.5859   13.9805 C   0  0  0  0  0  0  0  0  0  0  0  0
   17.1825   93.8847   14.2095 C   0  0  2  0  0  0  0  0  0  0  0  0
   17.3522   92.5760   15.1981 C   0  0  2  0  0  0  0  0  0  0  0  0
   18.3733   91.7357   14.8059 C   0  0  1  0  0  0  0  0  0  0  0  0
   19.8486   92.4808   14.7394 C   0  0  0  0  0  0  0  0  0  0  0  0
   21.1033   94.5090   13.7912 C   0  0  0  0  0  0  0  0  0  0  0  0
   16.6825   93.4601   12.9705 O   0  0  0  0  0  0  0  0  0  0  0  0
   16.1115   91.8580   15.1386 O   0  0  0  0  0  0  0  0  0  0  0  0
   18.4875   90.6465   15.7392 O   0  0  0  0  0  0  0  0  0  0  0  0
   22.2198   93.9820   14.0382 O   0  0  0  0  0  0  0  0  0  0  0  0
   21.0359   95.5718   13.1205 O   0  0  0  0  0  0  0  0  0  0  0  0
   15.1096   92.9529   12.8387 P   0  0  2  0  0  0  0  0  0  0  0  0
   14.2327   94.0576   12.2985 O   0  0  0  0  0  0  0  0  0  0  0  0
   14.6362   92.5722   14.2236 O   0  0  0  0  0  0  0  0  0  0  0  0
   15.1186   91.7776   11.9068 O   0  0  0  0  0  0  0  0  0  0  0  0
  1  2  2  0
  2  3  1  0
  3  4  1  0
  4  5  1  0
  1  6  1  0
  5  6  1  0
  1  7  1  0
  3  8  1  6
  4  9  1  6
  5 10  1  1
  7 11  1  0
  7 12  2  0
  8 13  1  0
 13 14  2  0
 13 15  1  1
 13 16  1  0
M  END
