8HO0_3ZI_A_402
     RDKit          3D

 22 25  0  0  0  0  0  0  0  0999 V2000
   22.5086   45.8629   -3.4116 C   0  0  1  0  0  0  0  0  0  0  0  0
   19.9514   48.9393   -5.8442 C   0  0  0  0  0  0  0  0  0  0  0  0
   18.4539   47.2276   -5.0863 C   0  0  0  0  0  0  0  0  0  0  0  0
   19.7455   47.7491   -5.2028 C   0  0  0  0  0  0  0  0  0  0  0  0
   22.2573   46.5957   -1.1831 O   0  0  0  0  0  0  0  0  0  0  0  0
   22.3442   43.7342   -0.1769 C   0  0  0  0  0  0  0  0  0  0  0  0
   23.2847   43.5105   -3.6869 C   0  0  0  0  0  0  0  0  0  0  0  0
   21.1221   46.0056   -4.0301 C   0  0  0  0  0  0  0  0  0  0  0  0
   20.9806   47.2780   -4.7684 C   0  0  0  0  0  0  0  0  0  0  0  0
   18.8384   49.5815   -6.3584 C   0  0  0  0  0  0  0  0  0  0  0  0
   17.5592   49.0686   -6.2452 C   0  0  0  0  0  0  0  0  0  0  0  0
   17.3588   47.8744   -5.6003 C   0  0  0  0  0  0  0  0  0  0  0  0
   22.4700   45.6208   -1.9612 C   0  0  0  0  0  0  0  0  0  0  0  0
   23.2785   43.2435   -2.2510 C   0  0  2  0  0  0  0  0  0  0  0  0
   22.4288   42.0547   -1.8682 C   0  0  0  0  0  0  0  0  0  0  0  0
   21.7673   42.3939   -0.5489 C   0  0  0  0  0  0  0  0  0  0  0  0
   21.9260   48.2012   -5.1580 C   0  0  0  0  0  0  0  0  0  0  0  0
   18.9798   50.7545   -6.9993 F   0  0  0  0  0  0  0  0  0  0  0  0
   22.6722   44.3003   -1.4747 N   0  0  0  0  0  0  0  0  0  0  0  0
   23.1957   44.8456   -4.1642 N   0  0  0  0  0  0  0  0  0  0  0  0
   21.2803   49.2066   -5.8124 N   0  0  0  0  0  0  0  0  0  0  0  0
   23.3680   42.5827   -4.5339 O   0  0  0  0  0  0  0  0  0  0  0  0
  2  4  1  0
  3  4  2  0
  1  8  1  0
  4  9  1  0
  8  9  1  1
  2 10  2  0
 10 11  1  0
 11 12  2  0
  3 12  1  0
  1 13  1  0
  5 13  2  0
 14  7  1  6
 15 14  1  6
 16  6  1  6
 15 16  1  0
  9 17  2  0
 10 18  1  0
 13 19  1  0
 14 19  1  0
  6 19  1  6
  1 20  1  6
  7 20  1  0
  2 21  1  0
 17 21  1  0
  7 22  2  0
M  END
$$$$
