7OFK_VCH_A_601
     RDKit          3D

 35 37  0  0  0  0  0  0  0  0999 V2000
  -26.9828    0.9468   -9.1126 C   0  0  0  0  0  0  0  0  0  0  0  0
  -27.6339    1.5137  -10.3225 C   0  0  0  0  0  0  0  0  0  0  0  0
  -25.7592   -1.1572  -14.0427 C   0  0  0  0  0  0  0  0  0  0  0  0
  -26.1938   -1.4756  -15.3121 C   0  0  0  0  0  0  0  0  0  0  0  0
  -27.2337   -0.7412  -15.8431 C   0  0  0  0  0  0  0  0  0  0  0  0
  -27.8275    0.2804  -15.1377 C   0  0  0  0  0  0  0  0  0  0  0  0
  -27.4030    0.6190  -13.8519 C   0  0  0  0  0  0  0  0  0  0  0  0
  -27.8335    1.6435  -12.8650 C   0  0  2  0  0  0  0  0  0  0  0  0
  -27.2614    2.9860  -13.2098 C   0  0  0  0  0  0  0  0  0  0  0  0
  -27.8025    5.2039  -14.2213 C   0  0  0  0  0  0  0  0  0  0  0  0
  -27.0792    7.5264  -15.5442 C   0  0  0  0  0  0  0  0  0  0  0  0
  -28.3981    7.2503  -15.2729 C   0  0  0  0  0  0  0  0  0  0  0  0
  -28.7862    6.0857  -14.6072 C   0  0  0  0  0  0  0  0  0  0  0  0
  -26.6038    8.7379  -16.2442 C   0  0  1  0  0  0  0  0  0  0  0  0
  -26.4753    9.8719  -15.2671 C   0  0  2  0  0  0  0  0  0  0  0  0
  -25.6294   -4.3000  -15.2797 C   0  0  0  0  0  0  0  0  0  0  0  0
  -28.6063    2.3007  -10.1234 O   0  0  0  0  0  0  0  0  0  0  0  0
  -27.1933    1.1935  -11.6361 N   0  0  0  0  0  0  0  0  0  0  0  0
  -26.0613    0.3856  -11.9706 C   0  0  0  0  0  0  0  0  0  0  0  0
  -26.3549   -0.1312  -13.3334 C   0  0  0  0  0  0  0  0  0  0  0  0
  -26.0121    3.1968  -13.2062 O   0  0  0  0  0  0  0  0  0  0  0  0
  -28.1941    4.0164  -13.5428 N   0  0  0  0  0  0  0  0  0  0  0  0
  -26.4644    5.4448  -14.4752 C   0  0  0  0  0  0  0  0  0  0  0  0
  -26.1344    6.5917  -15.1260 C   0  0  0  0  0  0  0  0  0  0  0  0
  -25.2933    8.5068  -16.7274 O   0  0  0  0  0  0  0  0  0  0  0  0
  -25.5682    9.5428  -14.2792 F   0  0  0  0  0  0  0  0  0  0  0  0
  -27.6676   10.1570  -14.6316 F   0  0  0  0  0  0  0  0  0  0  0  0
  -26.0284   11.0301  -15.8650 F   0  0  0  0  0  0  0  0  0  0  0  0
  -27.4165    9.1092  -17.4537 C   0  0  1  0  0  0  0  0  0  0  0  0
  -26.8398   10.1270  -18.1802 F   0  0  0  0  0  0  0  0  0  0  0  0
  -27.7558    8.0447  -18.2530 F   0  0  0  0  0  0  0  0  0  0  0  0
  -28.6431    9.6347  -17.0135 F   0  0  0  0  0  0  0  0  0  0  0  0
  -25.4176   -2.7786  -16.1794 S   0  0  1  0  0  6  0  0  0  0  0  0
  -26.0582   -2.9004  -17.5342 O   0  0  0  0  0  0  0  0  0  0  0  0
  -23.9562   -2.5188  -16.3208 O   0  0  0  0  0  0  0  0  0  0  0  0
  1  2  1  6
  3  4  2  0
  4  5  1  0
  5  6  2  0
  6  7  1  0
  7  8  1  0
  8  9  1  6
 11 12  2  0
 12 13  1  0
 10 13  2  0
 11 14  1  0
 14 15  1  0
  2 17  2  0
  8 18  1  0
  2 18  1  0
 19 18  1  6
  3 20  1  0
  7 20  2  0
 19 20  1  0
  9 21  2  0
 10 22  1  0
  9 22  1  0
 10 23  1  0
 11 24  1  0
 23 24  2  0
 14 25  1  6
 15 26  1  1
 15 27  1  0
 15 28  1  0
 14 29  1  0
 29 30  1  6
 29 31  1  0
 29 32  1  0
 16 33  1  6
 33  4  1  1
 33 34  2  0
 33 35  2  0
M  END
$$$$
