1YQY_915_A_782
     RDKit          3D

 42 43  0  0  0  0  0  0  0  0999 V2000
   -0.7658    1.6312    1.5430 C   0  0  0  0  0  0  0  0  0  0  0  0
    0.2609    1.4061    2.4699 C   0  0  0  0  0  0  0  0  0  0  0  0
    1.3291    2.3112    2.5821 C   0  0  0  0  0  0  0  0  0  0  0  0
    1.3555    3.4520    1.7629 C   0  0  0  0  0  0  0  0  0  0  0  0
    0.3290    3.6783    0.8417 C   0  0  0  0  0  0  0  0  0  0  0  0
   -0.7288    2.7728    0.7308 C   0  0  0  0  0  0  0  0  0  0  0  0
    2.3752    4.3431    1.8558 F   0  0  0  0  0  0  0  0  0  0  0  0
    2.4315    2.0705    3.5724 C   0  0  0  0  0  0  0  0  0  0  0  0
   -2.0793    0.4647    1.3990 S   0  0  0  0  0  6  0  0  0  0  0  0
   -1.4672   -1.0915    0.9101 N   0  0  0  0  0  0  0  0  0  0  0  0
   -1.0745   -1.1171   -0.5109 C   0  0  1  0  0  0  0  0  0  0  0  0
    0.1938   -0.3222   -0.7503 C   0  0  0  0  0  0  0  0  0  0  0  0
    1.4202   -0.6665   -0.0962 N   0  0  0  0  0  0  0  0  0  0  0  0
    2.5479    0.0445   -0.3357 O   0  0  0  0  0  0  0  0  0  0  0  0
    0.1703    0.6484   -1.5544 O   0  0  0  0  0  0  0  0  0  0  0  0
   -3.1023    0.9475    0.4077 O   0  0  0  0  0  0  0  0  0  0  0  0
   -2.7454    0.3279    2.7389 O   0  0  0  0  0  0  0  0  0  0  0  0
   -0.9107   -2.5859   -0.9851 C   0  0  0  0  0  0  0  0  0  0  0  0
   -0.4810   -2.6685   -2.4704 C   0  0  0  0  0  0  0  0  0  0  0  0
   -0.8031   -4.0430   -3.0847 C   0  0  0  0  0  0  0  0  0  0  0  0
   -0.8857   -5.0352   -2.0820 O   0  0  0  0  0  0  0  0  0  0  0  0
   -2.0544   -4.8405   -1.3016 C   0  0  0  0  0  0  0  0  0  0  0  0
   -2.2095   -3.3913   -0.7827 C   0  0  0  0  0  0  0  0  0  0  0  0
    0.2300    0.5231    3.0964 H   0  0  0  0  0  0  0  0  0  0  0  0
    0.3534    4.5570    0.2101 H   0  0  0  0  0  0  0  0  0  0  0  0
   -1.5112    2.9613    0.0078 H   0  0  0  0  0  0  0  0  0  0  0  0
    2.4248    2.8746    4.3387 H   0  0  0  0  0  0  0  0  0  0  0  0
    2.3124    1.0922    4.0858 H   0  0  0  0  0  0  0  0  0  0  0  0
    3.4119    2.0716    3.0502 H   0  0  0  0  0  0  0  0  0  0  0  0
   -0.6559   -1.3349    1.5225 H   0  0  0  0  0  0  0  0  0  0  0  0
   -1.8916   -0.6697   -1.1209 H   0  0  0  0  0  0  0  0  0  0  0  0
    1.4687   -1.4877    0.5465 H   0  0  0  0  0  0  0  0  0  0  0  0
    2.5562    0.7502    0.3600 H   0  0  0  0  0  0  0  0  0  0  0  0
   -0.1204   -3.0716   -0.3688 H   0  0  0  0  0  0  0  0  0  0  0  0
   -0.9953   -1.8852   -3.0698 H   0  0  0  0  0  0  0  0  0  0  0  0
    0.6135   -2.4831   -2.5400 H   0  0  0  0  0  0  0  0  0  0  0  0
    0.0029   -4.3223   -3.7960 H   0  0  0  0  0  0  0  0  0  0  0  0
   -1.7471   -3.9947   -3.6762 H   0  0  0  0  0  0  0  0  0  0  0  0
   -1.9952   -5.5254   -0.4292 H   0  0  0  0  0  0  0  0  0  0  0  0
   -2.9552   -5.1405   -1.8822 H   0  0  0  0  0  0  0  0  0  0  0  0
   -2.4872   -3.4161    0.2935 H   0  0  0  0  0  0  0  0  0  0  0  0
   -3.0389   -2.8950   -1.3342 H   0  0  0  0  0  0  0  0  0  0  0  0
  1  2  2  0
  2  3  1  0
  3  4  2  0
  4  5  1  0
  1  6  1  0
  5  6  2  0
  4  7  1  0
  3  8  1  0
  1  9  1  0
  9 10  1  0
 11 10  1  0
 11 12  1  0
 12 13  1  0
 13 14  1  0
 12 15  2  0
  9 16  2  0
  9 17  2  0
 11 18  1  0
 18 19  1  0
 19 20  1  0
 20 21  1  0
 21 22  1  0
 18 23  1  0
 22 23  1  0
  2 24  1  0
  5 25  1  0
  6 26  1  0
  8 27  1  0
  8 28  1  0
  8 29  1  0
 10 30  1  0
 11 31  1  6
 13 32  1  0
 14 33  1  0
 18 34  1  0
 19 35  1  0
 19 36  1  0
 20 37  1  0
 20 38  1  0
 22 39  1  0
 22 40  1  0
 23 41  1  0
 23 42  1  0
M  END
