@<TRIPOS>MOLECULE
1YQY_915_A_782
 42 43 0 0 0
SMALL
GASTEIGER

@<TRIPOS>ATOM
      1 C           9.2270   20.0170   27.7680 C.ar    1  UNL1        0.1057
      2 C           8.2930   19.4750   28.7070 C.ar    1  UNL1       -0.0297
      3 C           8.0500   20.1670   29.9210 C.ar    1  UNL1       -0.0134
      4 C           8.7620   21.3710   30.1500 C.ar    1  UNL1        0.1264
      5 C           9.7370   21.8950   29.2310 C.ar    1  UNL1       -0.0243
      6 C           9.9470   21.2150   28.0390 C.ar    1  UNL1       -0.0326
      7 F           8.5230   22.0660   31.2740 F       1  UNL1       -0.2052
      8 C           7.0320   19.6580   30.9070 C.3     1  UNL1       -0.0369
      9 S           9.4700   19.1960   26.2210 S.O2    1  UNL1        0.0591
     10 N          10.4390   17.7900   26.5140 N.3     1  UNL1       -0.1777
     11 C          11.8990   17.9240   26.5070 C.3     1  UNL1        0.1096
     12 C          12.4690   18.4380   27.8460 C.2     1  UNL1        0.2543
     13 N          13.3900   19.4380   27.7230 N.am    1  UNL1       -0.1961
     14 O          13.9690   19.9520   28.8730 O.3     1  UNL1       -0.2951
     15 O          12.1600   17.9990   28.9170 O.2     1  UNL1       -0.2719
     16 O          10.3620   19.9620   25.4200 O.2     1  UNL1       -0.1530
     17 O           8.1790   18.7420   25.7310 O.2     1  UNL1       -0.1530
     18 C          12.6710   16.6260   26.2000 C.3     1  UNL1       -0.0113
     19 C          12.3710   15.9420   24.8220 C.3     1  UNL1       -0.0246
     20 C          13.1600   14.6640   24.5620 C.3     1  UNL1        0.0480
     21 O          14.5420   14.9270   24.7000 O.3     1  UNL1       -0.3797
     22 C          14.9420   15.4300   25.9930 C.3     1  UNL1        0.0480
     23 C          14.2100   16.7480   26.3050 C.3     1  UNL1       -0.0246
     24 H           7.8018   18.5906   28.5032 H       1  UNL1        0.0640
     25 H          10.2660   22.7531   29.4519 H       1  UNL1        0.0647
     26 H          10.6244   21.5776   27.3500 H       1  UNL1        0.0638
     27 H           6.6134   18.7416   30.5465 H       1  UNL1        0.0278
     28 H           6.2545   20.3838   31.0236 H       1  UNL1        0.0278
     29 H           7.5048   19.4869   31.8515 H       1  UNL1        0.0278
     30 H          10.1975   17.1050   25.7979 H       1  UNL1        0.1489
     31 H          12.0465   18.6296   25.7162 H       1  UNL1        0.0576
     32 H          13.6378   19.7868   26.8364 H       1  UNL1        0.1822
     33 H          13.6095   19.4937   29.6486 H       1  UNL1        0.2414
     34 H          12.2847   16.0065   26.9823 H       1  UNL1        0.0322
     35 H          12.6023   16.6407   24.0454 H       1  UNL1        0.0291
     36 H          11.3385   15.6619   24.8412 H       1  UNL1        0.0291
     37 H          12.9603   14.3172   23.5696 H       1  UNL1        0.0560
     38 H          12.8674   13.9145   25.2674 H       1  UNL1        0.0560
     39 H          15.9977   15.6044   25.9925 H       1  UNL1        0.0560
     40 H          14.6896   14.7070   26.7403 H       1  UNL1        0.0560
     41 H          14.4607   17.0496   27.3005 H       1  UNL1        0.0291
     42 H          14.5238   17.4676   25.5779 H       1  UNL1        0.0291
@<TRIPOS>BOND
     1     1     2   ar
     2     2     3   ar
     3     3     4   ar
     4     4     5   ar
     5     1     6   ar
     6     5     6   ar
     7     4     7    1
     8     3     8    1
     9     1     9    1
    10     9    10    1
    11    11    10    1
    12    11    12    1
    13    12    13   am
    14    13    14    1
    15    12    15    2
    16     9    16    2
    17     9    17    2
    18    11    18    1
    19    18    19    1
    20    19    20    1
    21    20    21    1
    22    21    22    1
    23    18    23    1
    24    22    23    1
    25     2    24    1
    26     5    25    1
    27     6    26    1
    28     8    27    1
    29     8    28    1
    30     8    29    1
    31    10    30    1
    32    11    31    1
    33    13    32    1
    34    14    33    1
    35    18    34    1
    36    19    35    1
    37    19    36    1
    38    20    37    1
    39    20    38    1
    40    22    39    1
    41    22    40    1
    42    23    41    1
    43    23    42    1
