1YWR_LI9_A_361
     RDKit          3D

 64 68  0  0  0  0  0  0  0  0999 V2000
    5.0321   -0.3901   18.8777 C   0  0  0  0  0  0  0  0  0  0  0  0
    5.0173   -1.2766   16.2432 C   0  0  0  0  0  0  0  0  0  0  0  0
    4.0092   -1.2555   18.4442 C   0  0  0  0  0  0  0  0  0  0  0  0
    6.0490    0.0417   18.0235 C   0  0  0  0  0  0  0  0  0  0  0  0
    6.0097   -0.4215   16.7123 C   0  0  0  0  0  0  0  0  0  0  0  0
    4.0028   -1.7014   17.1139 C   0  0  0  0  0  0  0  0  0  0  0  0
    2.9875   -1.6503   19.4212 C   0  0  0  0  0  0  0  0  0  0  0  0
    6.9735   -0.0157   15.8924 F   0  0  0  0  0  0  0  0  0  0  0  0
    1.2125   -2.9404   20.2118 N   0  0  0  0  0  4  0  0  0  0  0  0
    0.1201   -3.8954   20.3646 C   0  0  2  0  0  0  0  0  0  0  0  0
    0.8558   -2.0154   22.4328 C   0  0  0  0  0  0  0  0  0  0  0  0
    2.6076   -1.2258   20.6461 C   0  0  0  0  0  0  0  0  0  0  0  0
    3.1664   -0.1265   21.4399 C   0  0  0  0  0  0  0  0  0  0  0  0
    2.0519   -3.4767   18.1120 O   0  0  0  0  0  0  0  0  0  0  0  0
    2.0579   -2.8003   19.1215 C   0  0  0  0  0  0  0  0  0  0  0  0
    1.5467   -1.9671   21.1626 N   0  0  0  0  0  4  0  0  0  0  0  0
   -1.7526   -5.0893   19.1918 C   0  0  0  0  0  0  0  0  0  0  0  0
   -0.4190   -6.3246   20.7789 C   0  0  0  0  0  0  0  0  0  0  0  0
    0.6698   -5.2587   20.7956 C   0  0  0  0  0  0  0  0  0  0  0  0
   -0.6943   -3.9950   19.0699 C   0  0  0  0  0  0  0  0  0  0  0  0
   -1.0943   -6.3622   19.4827 N   0  0  0  0  0  0  0  0  0  0  0  0
    2.3521    0.8479   21.8722 N   0  0  0  0  0  0  0  0  0  0  0  0
    4.9982    0.9224   22.4662 C   0  0  0  0  0  0  0  0  0  0  0  0
    2.1293    2.8474   23.0600 N   0  0  0  0  0  0  0  0  0  0  0  0
    4.5210   -0.1271   21.7195 C   0  0  0  0  0  0  0  0  0  0  0  0
    2.8986    1.8303   22.5925 C   0  0  0  0  0  0  0  0  0  0  0  0
    4.1952    1.9050   22.9068 N   0  0  0  0  0  0  0  0  0  0  0  0
    1.5668    2.9031   24.3757 C   0  0  2  0  0  0  0  0  0  0  0  0
    0.5649    1.8189   24.7142 C   0  0  0  0  0  0  0  0  0  0  0  0
    0.8844    4.2681   24.5966 C   0  0  0  0  0  0  0  0  0  0  0  0
   -1.3106   -0.1801   25.2552 C   0  0  0  0  0  0  0  0  0  0  0  0
   -0.2834    1.3534   23.6960 C   0  0  0  0  0  0  0  0  0  0  0  0
    0.4560    1.2693   25.9940 C   0  0  0  0  0  0  0  0  0  0  0  0
   -0.4792    0.2712   26.2695 C   0  0  0  0  0  0  0  0  0  0  0  0
   -1.2112    0.3582   23.9795 C   0  0  0  0  0  0  0  0  0  0  0  0
    5.0303   -0.0650   19.8571 H   0  0  0  0  0  0  0  0  0  0  0  0
    5.0276   -1.5960   15.2619 H   0  0  0  0  0  0  0  0  0  0  0  0
    6.7953    0.6754   18.3499 H   0  0  0  0  0  0  0  0  0  0  0  0
    3.2599   -2.3349   16.7796 H   0  0  0  0  0  0  0  0  0  0  0  0
   -0.5415   -3.5506   21.1316 H   0  0  0  0  0  0  0  0  0  0  0  0
    0.0812   -2.7523   22.3897 H   0  0  0  0  0  0  0  0  0  0  0  0
    0.4261   -1.0581   22.6418 H   0  0  0  0  0  0  0  0  0  0  0  0
    1.5491   -2.2718   23.2064 H   0  0  0  0  0  0  0  0  0  0  0  0
   -2.2941   -5.1680   18.2723 H   0  0  0  0  0  0  0  0  0  0  0  0
   -2.4323   -4.8466   19.9817 H   0  0  0  0  0  0  0  0  0  0  0  0
   -1.1366   -6.1039   21.5412 H   0  0  0  0  0  0  0  0  0  0  0  0
    0.0339   -7.2778   20.9556 H   0  0  0  0  0  0  0  0  0  0  0  0
    1.0637   -5.1781   21.7872 H   0  0  0  0  0  0  0  0  0  0  0  0
    1.4358   -5.5473   20.1066 H   0  0  0  0  0  0  0  0  0  0  0  0
   -0.0381   -4.2275   18.2573 H   0  0  0  0  0  0  0  0  0  0  0  0
   -1.1808   -3.0588   18.8920 H   0  0  0  0  0  0  0  0  0  0  0  0
   -0.4064   -6.5549   18.7547 H   0  0  0  0  0  0  0  0  0  0  0  0
    6.0037    0.9570   22.6957 H   0  0  0  0  0  0  0  0  0  0  0  0
    1.9455    3.5993   22.4515 H   0  0  0  0  0  0  0  0  0  0  0  0
    5.1427   -0.8792   21.3836 H   0  0  0  0  0  0  0  0  0  0  0  0
    2.4034    2.7496   25.0250 H   0  0  0  0  0  0  0  0  0  0  0  0
    0.0584    4.3670   23.9236 H   0  0  0  0  0  0  0  0  0  0  0  0
    1.5888    5.0527   24.4144 H   0  0  0  0  0  0  0  0  0  0  0  0
    0.5324    4.3319   25.6051 H   0  0  0  0  0  0  0  0  0  0  0  0
   -2.0052   -0.9182   25.4495 H   0  0  0  0  0  0  0  0  0  0  0  0
   -0.2181    1.7475   22.7445 H   0  0  0  0  0  0  0  0  0  0  0  0
    1.0765    1.6064   26.7466 H   0  0  0  0  0  0  0  0  0  0  0  0
   -0.5516   -0.1274   27.2187 H   0  0  0  0  0  0  0  0  0  0  0  0
   -1.8344    0.0149   23.2318 H   0  0  0  0  0  0  0  0  0  0  0  0
  1  3  2  0
  1  4  1  0
  2  5  1  0
  4  5  2  0
  2  6  2  0
  3  6  1  0
  3  7  1  0
  5  8  1  0
  9 10  1  0
  7 12  2  0
 12 13  1  0
  7 15  1  0
  9 15  1  0
 14 15  2  0
  9 16  2  0
 11 16  1  0
 12 16  1  0
 10 19  1  0
 18 19  1  0
 10 20  1  0
 17 20  1  0
 17 21  1  0
 18 21  1  0
 13 22  2  0
 13 25  1  0
 23 25  2  0
 22 26  1  0
 24 26  1  0
 23 27  1  0
 26 27  2  0
 24 28  1  0
 28 29  1  0
 28 30  1  0
 29 32  1  0
 29 33  2  0
 31 34  2  0
 33 34  1  0
 31 35  1  0
 32 35  2  0
  1 36  1  0
  2 37  1  0
  4 38  1  0
  6 39  1  0
 10 40  1  1
 11 41  1  0
 11 42  1  0
 11 43  1  0
 17 44  1  0
 17 45  1  0
 18 46  1  0
 18 47  1  0
 19 48  1  0
 19 49  1  0
 20 50  1  0
 20 51  1  0
 21 52  1  0
 23 53  1  0
 24 54  1  0
 25 55  1  0
 28 56  1  1
 30 57  1  0
 30 58  1  0
 30 59  1  0
 31 60  1  0
 32 61  1  0
 33 62  1  0
 34 63  1  0
 35 64  1  0
M  CHG  2   9   1  16   1
M  END
