@<TRIPOS>MOLECULE
1YWR_LI9_A_361
 64 68 0 0 0
SMALL
GASTEIGER

@<TRIPOS>ATOM
      1 C          -1.2749    3.0321   -1.4740 C.ar    1  UNL1       -0.0511
      2 C           0.3855    5.2813   -1.5086 C.ar    1  UNL1       -0.0259
      3 C           0.0970    2.8864   -1.2016 C.ar    1  UNL1       -0.0104
      4 C          -1.8104    4.2935   -1.7481 C.ar    1  UNL1       -0.0259
      5 C          -0.9812    5.4180   -1.7653 C.ar    1  UNL1        0.1234
      6 C           0.9242    4.0216   -1.2302 C.ar    1  UNL1       -0.0511
      7 C           0.6716    1.5543   -0.9007 C.ar    1  UNL1        0.0749
      8 F          -1.5016    6.6408   -2.0340 F       1  UNL1       -0.2055
      9 N           2.0153   -0.2481   -0.9665 N.ar    1  UNL1       -0.2458
     10 C           3.1486   -1.1711   -1.2244 C.3     1  UNL1        0.0569
     11 C           0.7812   -1.7973    0.5499 C.3     1  UNL1        0.0292
     12 C           0.1393    0.5302   -0.1265 C.ar    1  UNL1        0.0966
     13 C          -1.1206    0.5882    0.6471 C.ar    1  UNL1        0.0945
     14 O           2.6201    1.6290   -2.1827 O.2     1  UNL1       -0.2655
     15 C           1.8443    1.0240   -1.4013 C.ar    1  UNL1        0.2758
     16 N           0.9832   -0.5324   -0.1666 N.ar    1  UNL1       -0.2814
     17 C           5.0488   -0.1314   -2.7004 C.3     1  UNL1       -0.0022
     18 C           5.2577   -0.0736   -0.3127 C.3     1  UNL1       -0.0022
     19 C           4.1763   -1.1215   -0.0743 C.3     1  UNL1       -0.0178
     20 C           3.7984   -1.0361   -2.6337 C.3     1  UNL1       -0.0178
     21 N           5.9496   -0.3693   -1.5689 N.3     1  UNL1       -0.3158
     22 N          -2.0292   -0.4181    0.5394 N.ar    1  UNL1       -0.2129
     23 C          -2.6386    1.7298    2.1120 C.ar    1  UNL1        0.0333
     24 N          -4.1991   -1.4199    1.0538 N.pl3   1  UNL1       -0.3069
     25 C          -1.4118    1.6919    1.4569 C.ar    1  UNL1       -0.0159
     26 C          -3.2244   -0.3703    1.1882 C.ar    1  UNL1        0.2162
     27 N          -3.5193    0.7066    1.9633 N.ar    1  UNL1       -0.2229
     28 C          -4.0609   -2.6922    0.3235 C.3     1  UNL1        0.0457
     29 C          -3.5152   -3.7834    1.2230 C.ar    1  UNL1       -0.0275
     30 C          -3.2588   -2.5751   -0.9797 C.3     1  UNL1       -0.0424
     31 C          -2.5064   -5.8363    2.8633 C.ar    1  UNL1       -0.0617
     32 C          -2.3202   -3.6031    1.9411 C.ar    1  UNL1       -0.0568
     33 C          -4.2001   -5.0098    1.3408 C.ar    1  UNL1       -0.0568
     34 C          -3.6998   -6.0269    2.1615 C.ar    1  UNL1       -0.0614
     35 C          -1.8164   -4.6249    2.7514 C.ar    1  UNL1       -0.0614
     36 H          -1.9299    2.1707   -1.4864 H       1  UNL1        0.0625
     37 H           1.0292    6.1515   -1.5234 H       1  UNL1        0.0646
     38 H          -2.8680    4.3961   -1.9508 H       1  UNL1        0.0646
     39 H           1.9829    3.9366   -1.0188 H       1  UNL1        0.0625
     40 H           2.7260   -2.2014   -1.2212 H       1  UNL1        0.0546
     41 H           0.2560   -1.6149    1.5109 H       1  UNL1        0.0472
     42 H           0.1928   -2.4947   -0.0825 H       1  UNL1        0.0472
     43 H           1.7457   -2.2764    0.8136 H       1  UNL1        0.0472
     44 H           4.7846    0.9439   -2.7564 H       1  UNL1        0.0425
     45 H           5.5929   -0.3597   -3.6434 H       1  UNL1        0.0425
     46 H           4.8153    0.9507   -0.3251 H       1  UNL1        0.0425
     47 H           5.9860   -0.1203    0.5258 H       1  UNL1        0.0425
     48 H           3.6724   -0.9010    0.8900 H       1  UNL1        0.0298
     49 H           4.6629   -2.1164    0.0223 H       1  UNL1        0.0298
     50 H           3.0455   -0.6973   -3.3775 H       1  UNL1        0.0298
     51 H           4.1223   -2.0503   -2.9594 H       1  UNL1        0.0298
     52 H           6.7492    0.3029   -1.6527 H       1  UNL1        0.1219
     53 H          -2.8956    2.5776    2.7312 H       1  UNL1        0.0831
     54 H          -5.0874   -1.2976    1.5901 H       1  UNL1        0.1495
     55 H          -0.7068    2.5062    1.5723 H       1  UNL1        0.0655
     56 H          -5.0893   -2.9800    0.0096 H       1  UNL1        0.0545
     57 H          -3.4593   -3.4644   -1.6177 H       1  UNL1        0.0251
     58 H          -3.5648   -1.6690   -1.5448 H       1  UNL1        0.0251
     59 H          -2.1672   -2.5390   -0.7881 H       1  UNL1        0.0251
     60 H          -2.1207   -6.6224    3.4998 H       1  UNL1        0.0618
     61 H          -1.7867   -2.6712    1.8860 H       1  UNL1        0.0621
     62 H          -5.1208   -5.1783    0.7956 H       1  UNL1        0.0621
     63 H          -4.2369   -6.9650    2.2517 H       1  UNL1        0.0618
     64 H          -0.8964   -4.4735    3.3016 H       1  UNL1        0.0618
@<TRIPOS>BOND
     1     1     3   ar
     2     1     4   ar
     3     2     5   ar
     4     4     5   ar
     5     2     6   ar
     6     3     6   ar
     7     3     7    1
     8     5     8    1
     9     9    10    1
    10     7    12   ar
    11    12    13    1
    12     7    15   ar
    13     9    15   ar
    14    14    15    2
    15     9    16   ar
    16    11    16    1
    17    12    16   ar
    18    10    19    1
    19    18    19    1
    20    10    20    1
    21    17    20    1
    22    17    21    1
    23    18    21    1
    24    13    22   ar
    25    13    25   ar
    26    23    25   ar
    27    22    26   ar
    28    24    26    1
    29    23    27   ar
    30    26    27   ar
    31    24    28    1
    32    28    29    1
    33    28    30    1
    34    29    32   ar
    35    29    33   ar
    36    31    34   ar
    37    33    34   ar
    38    31    35   ar
    39    32    35   ar
    40     1    36    1
    41     2    37    1
    42     4    38    1
    43     6    39    1
    44    10    40    1
    45    11    41    1
    46    11    42    1
    47    11    43    1
    48    17    44    1
    49    17    45    1
    50    18    46    1
    51    18    47    1
    52    19    48    1
    53    19    49    1
    54    20    50    1
    55    20    51    1
    56    21    52    1
    57    23    53    1
    58    24    54    1
    59    25    55    1
    60    28    56    1
    61    30    57    1
    62    30    58    1
    63    30    59    1
    64    31    60    1
    65    32    61    1
    66    33    62    1
    67    34    63    1
    68    35    64    1
