
     RDKit          3D

 33 35  0  0  0  0  0  0  0  0999 V2000
   13.1026   12.7828   16.0383 C   0  0  0  0  0  0  0  0  0  0  0  0
   14.6551    9.4395   12.9052 N   0  0  0  0  0  0  0  0  0  0  0  0
   15.8588    9.0067   12.3997 C   0  0  0  0  0  0  0  0  0  0  0  0
   16.0236    4.7231   13.8513 C   0  0  0  0  0  0  0  0  0  0  0  0
   15.1684    4.4767   16.1034 C   0  0  0  0  0  0  0  0  0  0  0  0
   15.4229    5.8205   16.3185 C   0  0  0  0  0  0  0  0  0  0  0  0
   11.2913   11.9114   20.3539 C   0  0  0  0  0  0  0  0  0  0  0  0
   11.6232   11.5825   19.0401 C   0  0  0  0  0  0  0  0  0  0  0  0
   12.7573   12.1448   18.4292 C   0  0  0  0  0  0  0  0  0  0  0  0
   13.1102   11.8049   17.0443 C   0  0  0  0  0  0  0  0  0  0  0  0
   13.4737   10.4971   16.6921 C   0  0  0  0  0  0  0  0  0  0  0  0
   13.8369   10.1775   15.3797 C   0  0  0  0  0  0  0  0  0  0  0  0
   13.8283   11.1577   14.3774 C   0  0  0  0  0  0  0  0  0  0  0  0
   13.4591   12.4662   14.7242 C   0  0  0  0  0  0  0  0  0  0  0  0
   14.3245   10.8661   12.9679 C   0  0  2  0  0  0  0  0  0  0  0  0
   15.9338    7.5028   12.1017 C   0  0  0  0  0  0  0  0  0  0  0  0
   16.3164    6.0743   14.0753 C   0  0  0  0  0  0  0  0  0  0  0  0
   15.4661    3.9401   14.8609 C   0  0  0  0  0  0  0  0  0  0  0  0
   15.9751    6.6213   15.3185 C   0  0  0  0  0  0  0  0  0  0  0  0
   13.3667   11.3549   11.8467 C   0  0  0  0  0  0  0  0  0  0  0  0
   13.5435   13.0354   19.1791 C   0  0  0  0  0  0  0  0  0  0  0  0
   13.1986   13.3513   20.4932 C   0  0  0  0  0  0  0  0  0  0  0  0
   12.0727   12.7966   21.0810 C   0  0  0  0  0  0  0  0  0  0  0  0
   10.2054   11.3581   20.9103 F   0  0  0  0  0  0  0  0  0  0  0  0
   15.2273    2.6420   14.6292 F   0  0  0  0  0  0  0  0  0  0  0  0
   15.1359    6.3641   17.5094 F   0  0  0  0  0  0  0  0  0  0  0  0
   13.9701   14.2015   21.1856 F   0  0  0  0  0  0  0  0  0  0  0  0
   11.7480   13.1022   22.3447 F   0  0  0  0  0  0  0  0  0  0  0  0
   16.8609    6.8403   13.0353 N   0  0  0  0  0  0  0  0  0  0  0  0
   13.9761   12.0409   10.8147 N   0  0  0  0  0  0  0  0  0  0  0  0
   16.8086    9.7715   12.2389 O   0  0  0  0  0  0  0  0  0  0  0  0
   13.5132   13.3694   10.6301 O   0  0  0  0  0  0  0  0  0  0  0  0
   12.1378   11.2599   11.8897 O   0  0  0  0  0  0  0  0  0  0  0  0
  2  3  1  0
  5  6  4  0
  7  8  4  0
  8  9  4  0
  1 10  4  0
  9 10  1  0
 10 11  4  0
 11 12  4  0
 12 13  4  0
 13 14  4  0
  1 14  4  0
 15  2  1  1
 13 15  1  0
  3 16  1  0
  4 17  4  0
  4 18  4  0
  5 18  4  0
 17 19  4  0
  6 19  4  0
 15 20  1  0
  9 21  4  0
 21 22  4  0
  7 23  4  0
 22 23  4  0
  7 24  1  0
 18 25  1  0
  6 26  1  0
 22 27  1  0
 23 28  1  0
 16 29  1  0
 17 29  1  0
 20 30  1  0
  3 31  2  0
 30 32  1  0
 20 33  2  0
M  END
