6M73_FNR_A_401
     RDKit          3D

 31 33  0  0  0  0  0  0  0  0999 V2000
   27.8919    9.4061   36.9385 C   0  0  0  0  0  0  0  0  0  0  0  0
   28.0230    9.5801   38.3631 N   0  0  0  0  0  0  0  0  0  0  0  0
   29.3653    9.6370   38.8480 C   0  0  0  0  0  0  0  0  0  0  0  0
   29.6035    9.8001   40.1562 N   0  0  0  0  0  0  0  0  0  0  0  0
   30.8741    9.8571   40.6119 C   0  0  0  0  0  0  0  0  0  0  0  0
   31.1034   10.0119   41.8544 O   0  0  0  0  0  0  0  0  0  0  0  0
   31.9488    9.7578   39.8117 N   0  0  0  0  0  0  0  0  0  0  0  0
   31.7678    9.5936   38.4913 C   0  0  0  0  0  0  0  0  0  0  0  0
   32.7667    9.4962   37.7056 O   0  0  0  0  0  0  0  0  0  0  0  0
   30.4658    9.5348   38.0207 C   0  0  0  0  0  0  0  0  0  0  0  0
   30.3082    9.3646   36.6182 N   0  0  0  0  0  0  0  0  0  0  0  0
   28.9828    9.3039   36.1075 C   0  0  0  0  0  0  0  0  0  0  0  0
   28.8678    9.1254   34.7321 C   0  0  0  0  0  0  0  0  0  0  0  0
   27.6180    9.0436   34.1567 C   0  0  0  0  0  0  0  0  0  0  0  0
   27.4271    8.8548   32.7026 C   0  0  0  0  0  0  0  0  0  0  0  0
   26.5091    9.1418   34.9695 C   0  0  0  0  0  0  0  0  0  0  0  0
   25.1685    9.0537   34.3542 C   0  0  0  0  0  0  0  0  0  0  0  0
   26.6453    9.3192   36.3330 C   0  0  0  0  0  0  0  0  0  0  0  0
   26.8675    9.7249   39.1970 C   0  0  0  0  0  0  0  0  0  0  0  0
   26.4800   11.1692   39.4115 C   0  0  2  0  0  0  0  0  0  0  0  0
   27.4294   11.8797   40.1686 O   0  0  0  0  0  0  0  0  0  0  0  0
   25.1458   11.3696   40.0495 C   0  0  2  0  0  0  0  0  0  0  0  0
   25.0168   10.4287   41.1081 O   0  0  0  0  0  0  0  0  0  0  0  0
   24.0174   11.0327   39.1057 C   0  0  2  0  0  0  0  0  0  0  0  0
   24.2753   11.2532   37.7808 O   0  0  0  0  0  0  0  0  0  0  0  0
   22.7258   11.6775   39.5549 C   0  0  0  0  0  0  0  0  0  0  0  0
   21.6311   11.0384   38.9768 O   0  0  0  0  0  0  0  0  0  0  0  0
   21.0156   11.9049   37.6591 P   0  0  1  0  0  5  0  0  0  0  0  0
   19.4074   11.4724   37.3400 O   0  0  0  0  0  0  0  0  0  0  0  0
   21.0453   13.3797   37.9875 O   0  0  0  0  0  0  0  0  0  0  0  0
   21.9164   11.6632   36.2581 O   0  0  0  0  0  0  0  0  0  0  0  0
  1  2  1  0
  2  3  1  0
  3  4  1  0
  4  5  1  0
  5  6  2  0
  5  7  1  0
  7  8  1  0
  8  9  2  0
  3 10  2  0
  8 10  1  0
 10 11  1  0
  1 12  2  0
 11 12  1  0
 12 13  1  0
 13 14  2  0
 15 14  1  6
 14 16  1  0
 17 16  1  1
  1 18  1  0
 16 18  2  0
 19  2  1  1
 19 20  1  0
 20 21  1  1
 20 22  1  0
 22 23  1  1
 22 24  1  0
 24 25  1  6
 24 26  1  0
 26 27  1  6
 27 28  1  0
 28 29  1  6
 28 30  2  0
 28 31  1  0
M  END
$$$$
