@<TRIPOS>MOLECULE
1S19_MC9_A_500
 70 73 0 0 0
SMALL
GASTEIGER

@<TRIPOS>ATOM
      1 O          -1.4207   -1.9610    7.9675 O.3     1  UNL1       -0.3914
      2 O          -3.9563   -2.5860    4.4510 O.3     1  UNL1       -0.3871
      3 C          -3.8776   -1.3581    5.1318 C.3     1  UNL1        0.0822
      4 C          -3.3617   -1.5541    6.5734 C.3     1  UNL1        0.0037
      5 C          -1.8379   -1.7935    6.6358 C.3     1  UNL1        0.0619
      6 C          -1.0621   -0.6427    5.9684 C.3     1  UNL1       -0.0011
      7 C          -1.5454   -0.4302    4.5548 C.2     1  UNL1       -0.0399
      8 C          -0.6523   -0.3087    3.5515 C.2     1  UNL1       -0.0582
      9 C          -1.0292   -0.3220    2.1206 C.2     1  UNL1       -0.0620
     10 C          -0.2851    0.2146    1.1319 C.2     1  UNL1       -0.0659
     11 C           0.9104    1.1241    1.3791 C.3     1  UNL1       -0.0312
     12 C          -3.0202   -0.3713    4.3637 C.2     1  UNL1       -0.0229
     13 C           2.0298    0.9308    0.3318 C.3     1  UNL1       -0.0488
     14 C           1.5167    0.8412   -1.1251 C.3     1  UNL1       -0.0465
     15 C           0.3843   -0.2071   -1.2660 C.3     1  UNL1       -0.0222
     16 C          -0.7484    0.1989   -0.3085 C.3     1  UNL1       -0.0139
     17 C          -1.9427   -0.6491   -0.7473 C.3     1  UNL1       -0.0457
     18 C          -1.7861   -0.7632   -2.2739 C.3     1  UNL1       -0.0486
     19 C          -0.3976   -0.1711   -2.6171 C.3     1  UNL1       -0.0291
     20 C           0.9303   -1.6267   -0.9194 C.3     1  UNL1       -0.0587
     21 C          -3.5923    0.5602    3.5905 C.2     1  UNL1       -0.0928
     22 C           0.2115   -0.7156   -3.9549 C.3     1  UNL1       -0.0223
     23 C           1.3109    0.1898   -4.4743 C.2     1  UNL1       -0.0824
     24 C           2.9186    0.9431   -6.2473 C.3     1  UNL1        0.0762
     25 C           0.6601   -2.1891   -3.9561 C.3     1  UNL1       -0.0587
     26 C           4.3734    0.5623   -5.8612 C.3     1  UNL1       -0.0113
     27 C           4.7656    0.8549   -4.4175 C.3     1  UNL1       -0.0472
     28 C           4.6448   -0.5842   -4.8888 C.3     1  UNL1       -0.0472
     29 O           2.6475    2.2787   -5.9051 O.3     1  UNL1       -0.3875
     30 C           1.8437    0.0312   -5.6988 C.2     1  UNL1       -0.0593
     31 H          -1.6217   -1.1195    8.4553 H       1  UNL1        0.2098
     32 H          -3.0320   -2.9004    4.2709 H       1  UNL1        0.2102
     33 H          -4.9148   -0.9643    5.2167 H       1  UNL1        0.0644
     34 H          -3.6124   -0.6466    7.1663 H       1  UNL1        0.0318
     35 H          -3.8906   -2.4133    7.0403 H       1  UNL1        0.0318
     36 H          -1.6010   -2.7353    6.0955 H       1  UNL1        0.0597
     37 H           0.0235   -0.8840    5.9981 H       1  UNL1        0.0338
     38 H          -1.2153    0.2997    6.5380 H       1  UNL1        0.0338
     39 H           0.3995   -0.3206    3.8013 H       1  UNL1        0.0620
     40 H          -1.9552   -0.8200    1.8699 H       1  UNL1        0.0617
     41 H           0.5552    2.1758    1.3286 H       1  UNL1        0.0310
     42 H           1.3620    0.9855    2.3790 H       1  UNL1        0.0310
     43 H           2.6063    0.0143    0.5801 H       1  UNL1        0.0268
     44 H           2.7415    1.7810    0.4075 H       1  UNL1        0.0268
     45 H           1.1569    1.8447   -1.4425 H       1  UNL1        0.0271
     46 H           2.3733    0.5652   -1.7751 H       1  UNL1        0.0271
     47 H          -1.0421    1.2557   -0.5227 H       1  UNL1        0.0351
     48 H          -1.9011   -1.6621   -0.2907 H       1  UNL1        0.0271
     49 H          -2.9034   -0.1604   -0.4748 H       1  UNL1        0.0271
     50 H          -2.5870   -0.1897   -2.7903 H       1  UNL1        0.0268
     51 H          -1.8749   -1.8264   -2.5774 H       1  UNL1        0.0268
     52 H          -0.5982    0.9074   -2.8287 H       1  UNL1        0.0312
     53 H           1.9008   -1.8090   -1.4203 H       1  UNL1        0.0235
     54 H           0.2152   -2.4275   -1.1911 H       1  UNL1        0.0235
     55 H           1.1219   -1.7436    0.1662 H       1  UNL1        0.0235
     56 H          -2.9990    1.3116    3.0851 H       1  UNL1        0.0538
     57 H          -4.6673    0.6005    3.4687 H       1  UNL1        0.0538
     58 H          -0.6125   -0.6485   -4.7012 H       1  UNL1        0.0343
     59 H           1.6294    1.0328   -3.8750 H       1  UNL1        0.0573
     60 H           2.8592    0.8454   -7.3557 H       1  UNL1        0.0640
     61 H          -0.0531   -2.8422   -3.4185 H       1  UNL1        0.0235
     62 H           1.6779   -2.3062   -3.5371 H       1  UNL1        0.0235
     63 H           0.7006   -2.5659   -4.9997 H       1  UNL1        0.0235
     64 H           5.1869    0.7972   -6.5808 H       1  UNL1        0.0329
     65 H           5.8149    1.1914   -4.2795 H       1  UNL1        0.0269
     66 H           3.9551    1.1688   -3.7288 H       1  UNL1        0.0269
     67 H           3.7845   -1.1187   -4.4393 H       1  UNL1        0.0269
     68 H           5.6268   -1.0836   -5.0268 H       1  UNL1        0.0269
     69 H           3.2087    2.8462   -6.4959 H       1  UNL1        0.2102
     70 H           1.4855   -0.7687   -6.3408 H       1  UNL1        0.0595
@<TRIPOS>BOND
     1     3     2    1
     2     3     4    1
     3     5     1    1
     4     4     5    1
     5     5     6    1
     6     6     7    1
     7     7     8    2
     8     8     9    1
     9     9    10    2
    10    10    11    1
    11     3    12    1
    12     7    12    1
    13    11    13    1
    14    13    14    1
    15    14    15    1
    16    10    16    1
    17    15    16    1
    18    16    17    1
    19    17    18    1
    20    15    19    1
    21    19    18    1
    22    15    20    1
    23    12    21    2
    24    19    22    1
    25    22    23    1
    26    22    25    1
    27    24    26    1
    28    26    27    1
    29    26    28    1
    30    27    28    1
    31    24    29    1
    32    23    30    2
    33    24    30    1
    34     1    31    1
    35     2    32    1
    36     3    33    1
    37     4    34    1
    38     4    35    1
    39     5    36    1
    40     6    37    1
    41     6    38    1
    42     8    39    1
    43     9    40    1
    44    11    41    1
    45    11    42    1
    46    13    43    1
    47    13    44    1
    48    14    45    1
    49    14    46    1
    50    16    47    1
    51    17    48    1
    52    17    49    1
    53    18    50    1
    54    18    51    1
    55    19    52    1
    56    20    53    1
    57    20    54    1
    58    20    55    1
    59    21    56    1
    60    21    57    1
    61    22    58    1
    62    23    59    1
    63    24    60    1
    64    25    61    1
    65    25    62    1
    66    25    63    1
    67    26    64    1
    68    27    65    1
    69    27    66    1
    70    28    67    1
    71    28    68    1
    72    29    69    1
    73    30    70    1
