1S19_MC9_A_500
     RDKit          3D

 70 73  0  0  0  0  0  0  0  0999 V2000
   -1.4207   -1.9610    7.9675 O   0  0  0  0  0  0  0  0  0  0  0  0
   -3.9563   -2.5860    4.4510 O   0  0  0  0  0  0  0  0  0  0  0  0
   -3.8776   -1.3581    5.1318 C   0  0  1  0  0  0  0  0  0  0  0  0
   -3.3617   -1.5541    6.5734 C   0  0  0  0  0  0  0  0  0  0  0  0
   -1.8379   -1.7935    6.6358 C   0  0  1  0  0  0  0  0  0  0  0  0
   -1.0621   -0.6427    5.9684 C   0  0  0  0  0  0  0  0  0  0  0  0
   -1.5454   -0.4302    4.5548 C   0  0  0  0  0  0  0  0  0  0  0  0
   -0.6523   -0.3087    3.5515 C   0  0  0  0  0  0  0  0  0  0  0  0
   -1.0292   -0.3220    2.1206 C   0  0  0  0  0  0  0  0  0  0  0  0
   -0.2851    0.2146    1.1319 C   0  0  0  0  0  0  0  0  0  0  0  0
    0.9104    1.1241    1.3791 C   0  0  0  0  0  0  0  0  0  0  0  0
   -3.0202   -0.3713    4.3637 C   0  0  0  0  0  0  0  0  0  0  0  0
    2.0298    0.9308    0.3318 C   0  0  0  0  0  0  0  0  0  0  0  0
    1.5167    0.8412   -1.1251 C   0  0  0  0  0  0  0  0  0  0  0  0
    0.3843   -0.2071   -1.2660 C   0  0  1  0  0  0  0  0  0  0  0  0
   -0.7484    0.1989   -0.3085 C   0  0  1  0  0  0  0  0  0  0  0  0
   -1.9427   -0.6491   -0.7473 C   0  0  0  0  0  0  0  0  0  0  0  0
   -1.7861   -0.7632   -2.2739 C   0  0  0  0  0  0  0  0  0  0  0  0
   -0.3976   -0.1711   -2.6171 C   0  0  2  0  0  0  0  0  0  0  0  0
    0.9303   -1.6267   -0.9194 C   0  0  0  0  0  0  0  0  0  0  0  0
   -3.5923    0.5602    3.5905 C   0  0  0  0  0  0  0  0  0  0  0  0
    0.2115   -0.7156   -3.9549 C   0  0  1  0  0  0  0  0  0  0  0  0
    1.3109    0.1898   -4.4743 C   0  0  0  0  0  0  0  0  0  0  0  0
    2.9186    0.9431   -6.2473 C   0  0  2  0  0  0  0  0  0  0  0  0
    0.6601   -2.1891   -3.9561 C   0  0  0  0  0  0  0  0  0  0  0  0
    4.3734    0.5623   -5.8612 C   0  0  0  0  0  0  0  0  0  0  0  0
    4.7656    0.8549   -4.4175 C   0  0  0  0  0  0  0  0  0  0  0  0
    4.6448   -0.5842   -4.8888 C   0  0  0  0  0  0  0  0  0  0  0  0
    2.6475    2.2787   -5.9051 O   0  0  0  0  0  0  0  0  0  0  0  0
    1.8437    0.0312   -5.6988 C   0  0  0  0  0  0  0  0  0  0  0  0
   -1.6217   -1.1195    8.4553 H   0  0  0  0  0  0  0  0  0  0  0  0
   -3.0320   -2.9004    4.2709 H   0  0  0  0  0  0  0  0  0  0  0  0
   -4.9148   -0.9643    5.2167 H   0  0  0  0  0  0  0  0  0  0  0  0
   -3.6124   -0.6466    7.1663 H   0  0  0  0  0  0  0  0  0  0  0  0
   -3.8906   -2.4133    7.0403 H   0  0  0  0  0  0  0  0  0  0  0  0
   -1.6010   -2.7353    6.0955 H   0  0  0  0  0  0  0  0  0  0  0  0
    0.0235   -0.8840    5.9981 H   0  0  0  0  0  0  0  0  0  0  0  0
   -1.2153    0.2997    6.5380 H   0  0  0  0  0  0  0  0  0  0  0  0
    0.3995   -0.3206    3.8013 H   0  0  0  0  0  0  0  0  0  0  0  0
   -1.9552   -0.8200    1.8699 H   0  0  0  0  0  0  0  0  0  0  0  0
    0.5552    2.1758    1.3286 H   0  0  0  0  0  0  0  0  0  0  0  0
    1.3620    0.9855    2.3790 H   0  0  0  0  0  0  0  0  0  0  0  0
    2.6063    0.0143    0.5801 H   0  0  0  0  0  0  0  0  0  0  0  0
    2.7415    1.7810    0.4075 H   0  0  0  0  0  0  0  0  0  0  0  0
    1.1569    1.8447   -1.4425 H   0  0  0  0  0  0  0  0  0  0  0  0
    2.3733    0.5652   -1.7751 H   0  0  0  0  0  0  0  0  0  0  0  0
   -1.0421    1.2557   -0.5227 H   0  0  0  0  0  0  0  0  0  0  0  0
   -1.9011   -1.6621   -0.2907 H   0  0  0  0  0  0  0  0  0  0  0  0
   -2.9034   -0.1604   -0.4748 H   0  0  0  0  0  0  0  0  0  0  0  0
   -2.5870   -0.1897   -2.7903 H   0  0  0  0  0  0  0  0  0  0  0  0
   -1.8749   -1.8264   -2.5774 H   0  0  0  0  0  0  0  0  0  0  0  0
   -0.5982    0.9074   -2.8287 H   0  0  0  0  0  0  0  0  0  0  0  0
    1.9008   -1.8090   -1.4203 H   0  0  0  0  0  0  0  0  0  0  0  0
    0.2152   -2.4275   -1.1911 H   0  0  0  0  0  0  0  0  0  0  0  0
    1.1219   -1.7436    0.1662 H   0  0  0  0  0  0  0  0  0  0  0  0
   -2.9990    1.3116    3.0851 H   0  0  0  0  0  0  0  0  0  0  0  0
   -4.6673    0.6005    3.4687 H   0  0  0  0  0  0  0  0  0  0  0  0
   -0.6125   -0.6485   -4.7012 H   0  0  0  0  0  0  0  0  0  0  0  0
    1.6294    1.0328   -3.8750 H   0  0  0  0  0  0  0  0  0  0  0  0
    2.8592    0.8454   -7.3557 H   0  0  0  0  0  0  0  0  0  0  0  0
   -0.0531   -2.8422   -3.4185 H   0  0  0  0  0  0  0  0  0  0  0  0
    1.6779   -2.3062   -3.5371 H   0  0  0  0  0  0  0  0  0  0  0  0
    0.7006   -2.5659   -4.9997 H   0  0  0  0  0  0  0  0  0  0  0  0
    5.1869    0.7972   -6.5808 H   0  0  0  0  0  0  0  0  0  0  0  0
    5.8149    1.1914   -4.2795 H   0  0  0  0  0  0  0  0  0  0  0  0
    3.9551    1.1688   -3.7288 H   0  0  0  0  0  0  0  0  0  0  0  0
    3.7845   -1.1187   -4.4393 H   0  0  0  0  0  0  0  0  0  0  0  0
    5.6268   -1.0836   -5.0268 H   0  0  0  0  0  0  0  0  0  0  0  0
    3.2087    2.8462   -6.4959 H   0  0  0  0  0  0  0  0  0  0  0  0
    1.4855   -0.7687   -6.3408 H   0  0  0  0  0  0  0  0  0  0  0  0
  3  2  1  0
  3  4  1  0
  5  1  1  0
  4  5  1  0
  5  6  1  0
  6  7  1  0
  7  8  2  0
  8  9  1  0
  9 10  2  0
 10 11  1  0
  3 12  1  0
  7 12  1  0
 11 13  1  0
 13 14  1  0
 14 15  1  0
 10 16  1  0
 15 16  1  0
 16 17  1  0
 17 18  1  0
 15 19  1  0
 19 18  1  0
 15 20  1  1
 12 21  2  0
 19 22  1  0
 22 23  1  0
 22 25  1  0
 24 26  1  0
 26 27  1  0
 26 28  1  0
 27 28  1  0
 24 29  1  0
 23 30  2  0
 24 30  1  0
  1 31  1  0
  2 32  1  0
  3 33  1  1
  4 34  1  0
  4 35  1  0
  5 36  1  6
  6 37  1  0
  6 38  1  0
  8 39  1  0
  9 40  1  0
 11 41  1  0
 11 42  1  0
 13 43  1  0
 13 44  1  0
 14 45  1  0
 14 46  1  0
 16 47  1  6
 17 48  1  0
 17 49  1  0
 18 50  1  0
 18 51  1  0
 19 52  1  6
 20 53  1  0
 20 54  1  0
 20 55  1  0
 21 56  1  0
 21 57  1  0
 22 58  1  6
 23 59  1  0
 24 60  1  6
 25 61  1  0
 25 62  1  0
 25 63  1  0
 26 64  1  0
 27 65  1  0
 27 66  1  0
 28 67  1  0
 28 68  1  0
 29 69  1  0
 30 70  1  0
M  END
