1S19_MC9_A_500
     RDKit          3D

 30 33  0  0  0  0  0  0  0  0999 V2000
   17.0960   18.1590   34.7840 O   0  0  0  0  0  0  0  0  0  0  0  0
   13.1260   17.4540   36.5350 O   0  0  0  0  0  0  0  0  0  0  0  0
   14.1810   18.0370   35.6980 C   0  0  1  0  0  0  0  0  0  0  0  0
   14.9150   16.9590   34.7840 C   0  0  0  0  0  0  0  0  0  0  0  0
   16.0750   17.6280   33.8850 C   0  0  1  0  0  0  0  0  0  0  0  0
   15.4830   18.8070   32.9870 C   0  0  0  0  0  0  0  0  0  0  0  0
   14.6780   19.8850   33.7870 C   0  0  0  0  0  0  0  0  0  0  0  0
   14.8630   21.2550   33.6570 C   0  0  0  0  0  0  0  0  0  0  0  0
   14.2010   22.4150   34.3140 C   0  0  0  0  0  0  0  0  0  0  0  0
   13.9860   23.6240   33.8520 C   0  0  0  0  0  0  0  0  0  0  0  0
   14.4350   24.1110   32.3790 C   0  0  0  0  0  0  0  0  0  0  0  0
   13.6010   19.1950   34.7730 C   0  0  0  0  0  0  0  0  0  0  0  0
   13.1870   24.6460   31.4910 C   0  0  0  0  0  0  0  0  0  0  0  0
   12.2310   25.5920   32.3910 C   0  0  0  0  0  0  0  0  0  0  0  0
   11.8140   25.1290   33.9600 C   0  0  1  0  0  0  0  0  0  0  0  0
   13.2500   24.7290   34.6670 C   0  0  1  0  0  0  0  0  0  0  0  0
   12.6990   24.3720   36.2220 C   0  0  0  0  0  0  0  0  0  0  0  0
   11.4750   25.3840   36.3800 C   0  0  0  0  0  0  0  0  0  0  0  0
   11.4180   26.1800   35.0200 C   0  0  2  0  0  0  0  0  0  0  0  0
   10.7870   23.7830   33.6420 C   0  0  0  0  0  0  0  0  0  0  0  0
   12.2570   19.5560   34.8130 C   0  0  0  0  0  0  0  0  0  0  0  0
    9.9380   26.8860   34.7250 C   0  0  1  0  0  0  0  0  0  0  0  0
    8.6080   26.1550   35.0790 C   0  0  0  0  0  0  0  0  0  0  0  0
    6.1080   25.6110   34.6940 C   0  0  2  0  0  0  0  0  0  0  0  0
    9.8650   28.2480   35.4480 C   0  0  0  0  0  0  0  0  0  0  0  0
    5.5480   24.5800   33.5850 C   0  0  0  0  0  0  0  0  0  0  0  0
    5.0380   25.5240   32.4720 C   0  0  0  0  0  0  0  0  0  0  0  0
    4.2940   24.3490   33.2310 C   0  0  0  0  0  0  0  0  0  0  0  0
    5.2530   26.7520   34.9730 O   0  0  0  0  0  0  0  0  0  0  0  0
    7.5040   26.0930   34.2820 C   0  0  0  0  0  0  0  0  0  0  0  0
  3  2  1  6
  3  4  1  0
  5  1  1  1
  4  5  1  0
  5  6  1  0
  6  7  1  0
  7  8  2  0
  8  9  1  0
  9 10  2  0
 10 11  1  0
  3 12  1  0
  7 12  1  0
 11 13  1  0
 13 14  1  0
 14 15  1  0
 10 16  1  0
 15 16  1  0
 16 17  1  1
 17 18  1  0
 15 19  1  0
 19 18  1  1
 15 20  1  6
 12 21  2  0
 19 22  1  0
 22 23  1  0
 22 25  1  1
 24 26  1  0
 26 27  1  0
 26 28  1  0
 27 28  1  0
 24 29  1  6
 23 30  2  0
 24 30  1  0
M  END
$$$$
