
     RDKit          3D

 23 23  0  0  0  0  0  0  0  0999 V2000
   24.9589   16.8355   63.4645 C   0  0  1  0  0  0  0  0  0  0  0  0
   24.1486   16.5695   62.2885 N   0  0  0  0  0  0  0  0  0  0  0  0
   23.8405   15.3419   61.8213 C   0  0  0  0  0  0  0  0  0  0  0  0
   23.3801   15.0131   60.6736 N   0  0  0  0  0  0  0  0  0  0  0  0
   24.0869   14.3866   62.7360 N   0  0  0  0  0  0  0  0  0  0  0  0
   26.0077   17.9185   63.1922 C   0  0  2  0  0  0  0  0  0  0  0  0
   27.2608   17.5311   62.3557 C   0  0  2  0  0  0  0  0  0  0  0  0
   28.3390   18.5646   61.8759 C   0  0  2  0  0  0  0  0  0  0  0  0
   27.9126   19.2601   60.5535 C   0  0  0  0  0  0  0  0  0  0  0  0
   27.9197   20.7835   60.6474 C   0  0  0  0  0  0  0  0  0  0  0  0
   29.8035   18.0856   61.7772 C   0  0  0  0  0  0  0  0  0  0  0  0
   30.1769   16.9744   62.7497 C   0  0  0  0  0  0  0  0  0  0  0  0
   26.9004   16.6223   61.2595 N   0  0  0  0  0  0  0  0  0  0  0  0
   27.1274   15.2650   61.3147 C   0  0  0  0  0  0  0  0  0  0  0  0
   27.3120   14.6184   59.9682 C   0  0  0  0  0  0  0  0  0  0  0  0
   27.1945   14.6261   62.3596 O   0  0  0  0  0  0  0  0  0  0  0  0
   26.2261   18.5562   64.5724 C   0  0  2  0  0  0  0  0  0  0  0  0
   27.0768   17.7704   65.3947 O   0  0  0  0  0  0  0  0  0  0  0  0
   24.8305   18.5891   65.1933 C   0  0  1  0  0  0  0  0  0  0  0  0
   24.1942   19.9345   64.9490 C   0  0  0  0  0  0  0  0  0  0  0  0
   24.8137   20.9794   64.8087 O   0  0  0  0  0  0  0  0  0  0  0  0
   22.8563   19.9106   64.8162 O   0  0  0  0  0  0  0  0  0  0  0  0
   24.0728   17.4037   64.5892 C   0  0  0  0  0  0  0  0  0  0  0  0
  1  2  1  6
  2  3  1  0
  3  4  2  0
  3  5  1  0
  6  1  1  1
  6  7  1  0
  7  8  1  0
  8  9  1  6
  9 10  1  0
  8 11  1  0
 11 12  1  0
  7 13  1  6
 13 14  1  0
 14 15  1  0
 14 16  2  0
  6 17  1  0
 17 18  1  1
 17 19  1  0
 19 20  1  6
 20 21  2  0
 20 22  1  0
  1 23  1  0
 19 23  1  0
M  END
