8D39_QDB_A_501
     RDKit          3D

 17 18  0  0  0  0  0  0  0  0999 V2000
   20.9043    1.4068    5.7396 C   0  0  0  0  0  0  0  0  0  0  0  0
   20.9211    0.1231    5.2584 C   0  0  0  0  0  0  0  0  0  0  0  0
   21.4088   -0.9198    6.0406 C   0  0  0  0  0  0  0  0  0  0  0  0
   21.8943   -0.7513    7.3081 C   0  0  0  0  0  0  0  0  0  0  0  0
   21.8561    0.5893    7.7597 C   0  0  0  0  0  0  0  0  0  0  0  0
   21.3776    1.6159    6.9934 C   0  0  0  0  0  0  0  0  0  0  0  0
   22.4151   -1.7475    8.1984 C   0  0  0  0  0  0  0  0  0  0  0  0
   22.7594   -1.6958    9.5825 C   0  0  0  0  0  0  0  0  0  0  0  0
   23.6181   -2.4629   10.2966 C   0  0  0  0  0  0  0  0  0  0  0  0
   23.8307   -2.3526   11.6709 C   0  0  0  0  0  0  0  0  0  0  0  0
   23.1326   -1.4079   12.4002 C   0  0  0  0  0  0  0  0  0  0  0  0
   22.2552   -0.6132   11.7069 C   0  0  0  0  0  0  0  0  0  0  0  0
   22.0550   -0.7274   10.3547 C   0  0  0  0  0  0  0  0  0  0  0  0
   23.3414   -1.2846   13.8563 C   0  0  0  0  0  0  0  0  0  0  0  0
   22.6129   -2.9069    7.6478 O   0  0  0  0  0  0  0  0  0  0  0  0
   24.1535   -2.0601   14.4415 O   0  0  0  0  0  0  0  0  0  0  0  0
   22.6142   -0.3066   14.5244 O   0  0  0  0  0  0  0  0  0  0  0  0
  1  2  2  0
  2  3  1  0
  3  4  2  0
  4  5  1  0
  5  6  2  0
  1  6  1  0
  4  7  1  0
  7  8  1  0
  8  9  2  0
  9 10  1  0
 10 11  2  0
 11 12  1  0
 12 13  2  0
  8 13  1  0
 11 14  1  0
  7 15  2  0
 14 16  2  0
 14 17  1  0
M  END
$$$$
