7P1M_4IU_B_201
     RDKit          3D

 24 26  0  0  0  0  0  0  0  0999 V2000
   46.0441   -9.2382  -27.5304 O   0  0  0  0  0  0  0  0  0  0  0  0
   45.6980   -8.3569  -28.5717 C   0  0  0  0  0  0  0  0  0  0  0  0
   46.6205   -7.8405  -29.2869 O   0  0  0  0  0  0  0  0  0  0  0  0
   44.2858   -8.0586  -28.8034 C   0  0  0  0  0  0  0  0  0  0  0  0
   43.8988   -7.1958  -29.8255 C   0  0  0  0  0  0  0  0  0  0  0  0
   42.5563   -6.9232  -30.0323 C   0  0  0  0  0  0  0  0  0  0  0  0
   41.6216   -7.5196  -29.2111 C   0  0  0  0  0  0  0  0  0  0  0  0
   40.2824   -7.4318  -29.1914 N   0  0  0  0  0  0  0  0  0  0  0  0
   43.3609   -8.6555  -27.9827 C   0  0  0  0  0  0  0  0  0  0  0  0
   42.0203   -8.3847  -28.1874 C   0  0  0  0  0  0  0  0  0  0  0  0
   40.8827   -8.7860  -27.5864 N   0  0  0  0  0  0  0  0  0  0  0  0
   40.8020   -9.6972  -26.4604 C   0  0  0  0  0  0  0  0  0  0  0  0
   39.8172   -8.2072  -28.1954 C   0  0  0  0  0  0  0  0  0  0  0  0
   38.3864   -8.3995  -27.8231 C   0  0  0  0  0  0  0  0  0  0  0  0
   37.6487   -7.3903  -28.4773 O   0  0  0  0  0  0  0  0  0  0  0  0
   36.3080   -7.5750  -28.2262 C   0  0  2  0  0  0  0  0  0  0  0  0
   35.4704   -7.4726  -29.4566 C   0  0  0  0  0  0  0  0  0  0  0  0
   34.1554   -7.4624  -29.2685 C   0  0  0  0  0  0  0  0  0  0  0  0
   33.6503   -7.5450  -27.9780 O   0  0  0  0  0  0  0  0  0  0  0  0
   34.3269   -6.8371  -26.9461 C   0  0  1  0  0  0  0  0  0  0  0  0
   35.7617   -6.5482  -27.2576 C   0  0  2  0  0  0  0  0  0  0  0  0
   35.8453   -5.2999  -27.8752 O   0  0  0  0  0  0  0  0  0  0  0  0
   33.5625   -5.5221  -26.7881 C   0  0  0  0  0  0  0  0  0  0  0  0
   32.3394   -5.8089  -26.1835 O   0  0  0  0  0  0  0  0  0  0  0  0
  1  2  1  0
  2  3  2  0
  2  4  1  0
  4  5  2  0
  5  6  1  0
  6  7  2  0
  7  8  1  0
  4  9  1  0
  7 10  1  0
  9 10  2  0
 10 11  1  0
 12 11  1  6
  8 13  2  0
 11 13  1  0
 13 14  1  0
 14 15  1  1
 16 15  1  6
 16 17  1  0
 17 18  2  0
 18 19  1  0
 20 19  1  6
 16 21  1  0
 20 21  1  0
 21 22  1  6
 20 23  1  0
 23 24  1  1
M  END
$$$$
