7TB0_UD1_D_501
     RDKit          3D

 66 68  0  0  0  0  0  0  0  0999 V2000
   21.8527  -19.8826   75.3863 C   0  0  1  0  0  0  0  0  0  0  0  0
   21.4106  -18.5521   74.7257 C   0  0  1  0  0  0  0  0  0  0  0  0
   22.6428  -17.7775   74.2159 C   0  0  2  0  0  0  0  0  0  0  0  0
   23.5461  -18.6832   73.3590 C   0  0  1  0  0  0  0  0  0  0  0  0
   23.7824  -20.0672   74.0185 C   0  0  1  0  0  0  0  0  0  0  0  0
   24.8859  -20.0631   75.1008 C   0  0  1  0  0  0  0  0  0  0  0  0
   19.8167  -17.7453   72.9067 C   0  0  0  0  0  0  0  0  0  0  0  0
   19.2186  -18.0186   71.5651 C   0  0  2  0  0  0  0  0  0  0  0  0
   20.4643  -18.8070   73.6304 N   0  0  0  0  0  0  0  0  0  0  0  0
   20.7169  -20.6361   75.7772 O   0  0  0  0  0  0  0  0  0  0  0  0
   23.3773  -17.2656   75.3006 O   0  0  0  0  0  0  0  0  0  0  0  0
   22.9463  -18.8602   72.0989 O   0  0  0  0  0  0  0  0  0  0  0  0
   22.5774  -20.6785   74.4616 O   0  0  0  0  0  0  0  0  0  0  0  0
   25.1468  -21.3695   75.5431 O   0  0  0  0  0  0  0  0  0  0  0  0
   19.7134  -16.5936   73.4119 O   0  0  0  0  0  0  0  0  0  0  0  0
   22.0075  -15.2283   75.0927 N   0  0  0  0  0  0  0  0  0  0  0  0
   21.7336  -16.3116   74.2844 C   0  0  0  0  0  0  0  0  0  0  0  0
   20.8118  -16.2152   73.2850 N   0  0  0  0  0  0  0  0  0  0  0  0
   20.1773  -15.0460   73.0231 C   0  0  0  0  0  0  0  0  0  0  0  0
   20.4817  -13.9158   73.7693 C   0  0  0  0  0  0  0  0  0  0  0  0
   21.4196  -14.0213   74.7932 C   0  0  0  0  0  0  0  0  0  0  0  0
   22.3395  -17.4060   74.4465 O   0  0  0  0  0  0  0  0  0  0  0  0
   19.3258  -14.9803   72.0962 O   0  0  0  0  0  0  0  0  0  0  0  0
   23.0154  -15.3601   76.1826 C   0  0  1  0  0  0  0  0  0  0  0  0
   22.5148  -14.9724   77.5781 C   0  0  2  0  0  0  0  0  0  0  0  0
   22.6801  -13.5971   77.8150 O   0  0  0  0  0  0  0  0  0  0  0  0
   23.3771  -15.8144   78.4883 C   0  0  1  0  0  0  0  0  0  0  0  0
   23.6873  -17.0359   77.6134 C   0  0  2  0  0  0  0  0  0  0  0  0
   23.4833  -16.6951   76.2558 O   0  0  0  0  0  0  0  0  0  0  0  0
   24.5519  -15.1402   78.8766 O   0  0  0  0  0  0  0  0  0  0  0  0
   22.7889  -18.2298   77.9608 C   0  0  2  0  0  0  0  0  0  0  0  0
   22.8580  -18.4840   79.3445 O   0  0  0  0  0  0  0  0  0  0  0  0
   21.6965  -19.6730   79.7344 P   0  0  2  0  0  5  0  0  0  0  0  0
   20.3869  -19.0003   80.0906 O   0  0  0  0  0  0  0  0  0  0  0  0
   22.2428  -20.5113   81.0979 O   0  0  0  0  0  0  0  0  0  0  0  0
   21.5652  -20.7933   78.4475 O   0  0  0  0  0  0  0  0  0  0  0  0
   20.2950  -20.3277   77.4066 P   0  0  1  0  0  5  0  0  0  0  0  0
   19.9687  -18.8571   77.5593 O   0  0  0  0  0  0  0  0  0  0  0  0
   18.9229  -21.2530   77.7742 O   0  0  0  0  0  0  0  0  0  0  0  0
   22.5044  -19.6638   76.2597 H   0  0  0  0  0  0  0  0  0  0  0  0
   20.9069  -17.9238   75.4909 H   0  0  0  0  0  0  0  0  0  0  0  0
   22.3067  -16.9197   73.5831 H   0  0  0  0  0  0  0  0  0  0  0  0
   24.5270  -18.1657   73.2232 H   0  0  0  0  0  0  0  0  0  0  0  0
   24.1806  -20.7259   73.2152 H   0  0  0  0  0  0  0  0  0  0  0  0
   25.8157  -19.6096   74.6862 H   0  0  0  0  0  0  0  0  0  0  0  0
   24.5977  -19.4495   75.9756 H   0  0  0  0  0  0  0  0  0  0  0  0
   18.1169  -17.8631   71.5908 H   0  0  0  0  0  0  0  0  0  0  0  0
   19.4338  -19.0705   71.2763 H   0  0  0  0  0  0  0  0  0  0  0  0
   19.6584  -17.3313   70.8090 H   0  0  0  0  0  0  0  0  0  0  0  0
   20.1944  -19.7909   73.4011 H   0  0  0  0  0  0  0  0  0  0  0  0
   22.7152  -16.9194   75.9575 H   0  0  0  0  0  0  0  0  0  0  0  0
   23.6018  -19.3411   71.5285 H   0  0  0  0  0  0  0  0  0  0  0  0
   25.3783  -21.9017   74.7371 H   0  0  0  0  0  0  0  0  0  0  0  0
   20.6020  -17.0551   72.6971 H   0  0  0  0  0  0  0  0  0  0  0  0
   20.0065  -12.9651   73.5603 H   0  0  0  0  0  0  0  0  0  0  0  0
   21.6672  -13.1140   75.3278 H   0  0  0  0  0  0  0  0  0  0  0  0
   23.8828  -14.7098   75.9246 H   0  0  0  0  0  0  0  0  0  0  0  0
   21.4516  -15.2814   77.7180 H   0  0  0  0  0  0  0  0  0  0  0  0
   23.3179  -13.5185   78.5701 H   0  0  0  0  0  0  0  0  0  0  0  0
   22.8128  -16.0839   79.4081 H   0  0  0  0  0  0  0  0  0  0  0  0
   24.7473  -17.3493   77.7457 H   0  0  0  0  0  0  0  0  0  0  0  0
   24.5224  -14.2189   78.5110 H   0  0  0  0  0  0  0  0  0  0  0  0
   23.1537  -19.1136   77.3907 H   0  0  0  0  0  0  0  0  0  0  0  0
   21.7487  -17.9912   77.6427 H   0  0  0  0  0  0  0  0  0  0  0  0
   22.1382  -19.8728   81.8468 H   0  0  0  0  0  0  0  0  0  0  0  0
   18.7713  -21.1266   78.7462 H   0  0  0  0  0  0  0  0  0  0  0  0
  1  2  1  0
  2  3  1  0
  3  4  1  0
  4  5  1  0
  5  6  1  0
  7  8  1  0
  2  9  1  0
  7  9  1  0
  1 10  1  0
  3 11  1  0
  4 12  1  0
  1 13  1  0
  5 13  1  0
  6 14  1  0
  7 15  2  0
 16 17  1  0
 17 18  1  0
 18 19  1  0
 19 20  1  0
 16 21  1  0
 20 21  2  0
 17 22  2  0
 19 23  2  0
 24 16  1  0
 24 25  1  0
 25 26  1  0
 25 27  1  0
 27 28  1  0
 24 29  1  0
 28 29  1  0
 27 30  1  0
 28 31  1  0
 31 32  1  0
 33 32  1  6
 33 34  2  0
 33 35  1  0
 33 36  1  0
 37 10  1  6
 36 37  1  0
 37 38  2  0
 37 39  1  0
  1 40  1  1
  2 41  1  1
  3 42  1  6
  4 43  1  6
  5 44  1  6
  6 45  1  6
  6 46  1  0
  8 47  1  1
  8 48  1  0
  8 49  1  0
  9 50  1  0
 11 51  1  0
 12 52  1  0
 14 53  1  0
 18 54  1  0
 20 55  1  0
 21 56  1  0
 24 57  1  6
 25 58  1  6
 26 59  1  0
 27 60  1  1
 28 61  1  6
 30 62  1  0
 31 63  1  6
 31 64  1  0
 35 65  1  0
 39 66  1  0
M  END
