7N03_ZRP_A_201
     RDKit          3D

 56 58  0  0  0  0  0  0  0  0999 V2000
  -40.5642   13.6531    6.5304 C   0  0  1  0  0  0  0  0  0  0  0  0
  -40.7440   13.1867    5.0812 C   0  0  1  0  0  0  0  0  0  0  0  0
  -41.7464   14.0809    4.3374 C   0  0  1  0  0  0  0  0  0  0  0  0
  -42.3206   11.5312    6.1231 C   0  0  0  0  0  0  0  0  0  0  0  0
  -43.1186   11.8771    7.2148 C   0  0  0  0  0  0  0  0  0  0  0  0
  -44.4673   12.1924    7.0311 C   0  0  0  0  0  0  0  0  0  0  0  0
  -45.0376   12.1500    5.7402 C   0  0  0  0  0  0  0  0  0  0  0  0
  -44.2183   11.8171    4.6434 C   0  0  0  0  0  0  0  0  0  0  0  0
  -46.4092   12.4615    5.5898 C   0  0  0  0  0  0  0  0  0  0  0  0
  -47.1647   12.8458    6.7218 C   0  0  0  0  0  0  0  0  0  0  0  0
  -46.5358   12.8728    7.9762 C   0  0  0  0  0  0  0  0  0  0  0  0
  -48.6080   13.1758    6.6210 C   0  0  0  0  0  0  0  0  0  0  0  0
  -50.4024   14.8032    7.3367 C   0  0  2  0  0  0  0  0  0  0  0  0
  -45.7485    9.3267    2.6140 C   0  0  0  0  0  0  0  0  0  0  0  0
  -46.2569    9.4985    1.3244 C   0  0  0  0  0  0  0  0  0  0  0  0
  -47.0156   10.6306    1.0181 C   0  0  0  0  0  0  0  0  0  0  0  0
  -47.2650   11.5942    2.0001 C   0  0  0  0  0  0  0  0  0  0  0  0
  -49.2791   12.7577    5.6381 O   0  0  0  0  0  0  0  0  0  0  0  0
  -49.2515   13.9603    7.6362 N   0  0  0  0  0  0  0  0  0  0  0  0
  -45.2252   12.5458    8.0997 N   0  0  0  0  0  0  0  0  0  0  0  0
  -47.0243   12.4434    4.2908 N   0  0  0  0  0  0  0  0  0  0  0  0
  -46.7530   11.4365    3.2981 C   0  0  0  0  0  0  0  0  0  0  0  0
  -45.9954   10.2874    3.5995 C   0  0  0  0  0  0  0  0  0  0  0  0
  -42.8608   11.5080    4.8244 C   0  0  0  0  0  0  0  0  0  0  0  0
  -42.0637   11.1619    3.6749 N   0  0  0  0  0  0  0  0  0  0  0  0
  -41.5874   12.1170    2.6722 C   0  0  1  0  0  0  0  0  0  0  0  0
  -42.1126   13.5366    2.9453 C   0  0  1  0  0  0  0  0  0  0  0  0
  -39.0867   13.7575    6.8971 C   0  0  1  0  0  0  0  0  0  0  0  0
  -41.0394   14.6494    6.6650 H   0  0  0  0  0  0  0  0  0  0  0  0
  -41.0550   12.9326    7.2206 H   0  0  0  0  0  0  0  0  0  0  0  0
  -39.7589   13.2250    4.5687 H   0  0  0  0  0  0  0  0  0  0  0  0
  -41.1091   12.1361    5.0757 H   0  0  0  0  0  0  0  0  0  0  0  0
  -42.6831   14.1449    4.9334 H   0  0  0  0  0  0  0  0  0  0  0  0
  -41.3398   15.1118    4.2485 H   0  0  0  0  0  0  0  0  0  0  0  0
  -41.2853   11.2820    6.3050 H   0  0  0  0  0  0  0  0  0  0  0  0
  -42.6843   11.9006    8.2068 H   0  0  0  0  0  0  0  0  0  0  0  0
  -44.6204   11.8071    3.6390 H   0  0  0  0  0  0  0  0  0  0  0  0
  -47.0924   13.1282    8.8682 H   0  0  0  0  0  0  0  0  0  0  0  0
  -51.2246   14.5838    8.0499 H   0  0  0  0  0  0  0  0  0  0  0  0
  -50.7492   14.6134    6.2991 H   0  0  0  0  0  0  0  0  0  0  0  0
  -50.1214   15.8734    7.4308 H   0  0  0  0  0  0  0  0  0  0  0  0
  -45.1643    8.4470    2.8515 H   0  0  0  0  0  0  0  0  0  0  0  0
  -46.0649    8.7534    0.5632 H   0  0  0  0  0  0  0  0  0  0  0  0
  -47.4110   10.7620    0.0192 H   0  0  0  0  0  0  0  0  0  0  0  0
  -47.8532   12.4676    1.7482 H   0  0  0  0  0  0  0  0  0  0  0  0
  -48.8739   13.9641    8.6101 H   0  0  0  0  0  0  0  0  0  0  0  0
  -47.7789   13.1427    4.1056 H   0  0  0  0  0  0  0  0  0  0  0  0
  -45.5985   10.1268    4.5932 H   0  0  0  0  0  0  0  0  0  0  0  0
  -41.8331   10.1546    3.5154 H   0  0  0  0  0  0  0  0  0  0  0  0
  -40.4778   12.1184    2.6435 H   0  0  0  0  0  0  0  0  0  0  0  0
  -41.9211   11.7892    1.6647 H   0  0  0  0  0  0  0  0  0  0  0  0
  -43.2178   13.5402    2.8267 H   0  0  0  0  0  0  0  0  0  0  0  0
  -41.7044   14.2308    2.1810 H   0  0  0  0  0  0  0  0  0  0  0  0
  -38.9817   13.8307    8.0001 H   0  0  0  0  0  0  0  0  0  0  0  0
  -38.5377   12.8575    6.5468 H   0  0  0  0  0  0  0  0  0  0  0  0
  -38.6379   14.6636    6.4368 H   0  0  0  0  0  0  0  0  0  0  0  0
  1  2  1  0
  2  3  1  0
  4  5  2  0
  5  6  1  0
  6  7  2  0
  7  8  1  0
  7  9  1  0
  9 10  2  0
 10 11  1  0
 10 12  1  0
 14 15  2  0
 15 16  1  0
 16 17  2  0
 12 18  2  0
 12 19  1  0
 13 19  1  0
  6 20  1  0
 11 20  2  0
  9 21  1  0
 21 22  1  0
 17 22  1  0
 14 23  1  0
 22 23  2  0
  4 24  1  0
  8 24  2  0
 24 25  1  0
 25 26  1  0
 26 27  1  0
  3 27  1  0
  1 28  1  0
  1 29  1  6
  1 30  1  0
  2 31  1  6
  2 32  1  0
  3 33  1  1
  3 34  1  0
  4 35  1  0
  5 36  1  0
  8 37  1  0
 11 38  1  0
 13 39  1  1
 13 40  1  0
 13 41  1  0
 14 42  1  0
 15 43  1  0
 16 44  1  0
 17 45  1  0
 19 46  1  0
 21 47  1  0
 23 48  1  0
 25 49  1  0
 26 50  1  6
 26 51  1  0
 27 52  1  1
 27 53  1  0
 28 54  1  1
 28 55  1  0
 28 56  1  0
M  END
