1MEH_MOA_A_600
     RDKit          3D

 43 44  0  0  0  0  0  0  0  0999 V2000
   60.2819   54.9445   22.8511 C   0  0  0  0  0  0  0  0  0  0  0  0
   56.4075   54.4514   17.7369 C   0  0  0  0  0  0  0  0  0  0  0  0
   55.4997   53.8525   16.9295 C   0  0  0  0  0  0  0  0  0  0  0  0
   55.1380   54.5979   15.6520 C   0  0  0  0  0  0  0  0  0  0  0  0
   53.8417   54.0272   15.0612 C   0  0  0  0  0  0  0  0  0  0  0  0
   52.7006   55.0287   15.0062 C   0  0  0  0  0  0  0  0  0  0  0  0
   58.5950   58.6382   20.0338 C   0  0  0  0  0  0  0  0  0  0  0  0
   55.9443   57.6785   18.9846 C   0  0  0  0  0  0  0  0  0  0  0  0
   54.8335   52.5029   17.2280 C   0  0  0  0  0  0  0  0  0  0  0  0
   60.3136   57.2643   22.3780 C   0  0  0  0  0  0  0  0  0  0  0  0
   59.3692   56.5851   21.4103 C   0  0  0  0  0  0  0  0  0  0  0  0
   58.5733   57.1579   20.3413 C   0  0  0  0  0  0  0  0  0  0  0  0
   57.7523   56.2468   19.5665 C   0  0  0  0  0  0  0  0  0  0  0  0
   57.7477   54.8327   19.8739 C   0  0  0  0  0  0  0  0  0  0  0  0
   58.5521   54.3152   20.9460 C   0  0  0  0  0  0  0  0  0  0  0  0
   59.3554   55.2180   21.6980 C   0  0  0  0  0  0  0  0  0  0  0  0
   56.8947   53.8689   19.0564 C   0  0  0  0  0  0  0  0  0  0  0  0
   60.5532   53.9194   23.3946 O   0  0  0  0  0  0  0  0  0  0  0  0
   60.7896   56.1331   23.1905 O   0  0  0  0  0  0  0  0  0  0  0  0
   56.9920   56.7613   18.5432 O   0  0  0  0  0  0  0  0  0  0  0  0
   58.5297   52.9581   21.2201 O   0  0  0  0  0  0  0  0  0  0  0  0
   51.6455   54.6998   14.4137 O   0  0  0  0  0  0  0  0  0  0  0  0
   52.8633   56.1389   15.5626 O   0  0  0  0  0  0  0  0  0  0  0  0
   56.7938   55.3606   17.4385 H   0  0  0  0  0  0  0  0  0  0  0  0
   54.9996   55.6355   15.8742 H   0  0  0  0  0  0  0  0  0  0  0  0
   55.9292   54.4817   14.9410 H   0  0  0  0  0  0  0  0  0  0  0  0
   54.0440   53.6910   14.0657 H   0  0  0  0  0  0  0  0  0  0  0  0
   53.5285   53.2326   15.7057 H   0  0  0  0  0  0  0  0  0  0  0  0
   59.2572   59.1338   20.7125 H   0  0  0  0  0  0  0  0  0  0  0  0
   58.9343   58.7891   19.0303 H   0  0  0  0  0  0  0  0  0  0  0  0
   57.6087   59.0391   20.1408 H   0  0  0  0  0  0  0  0  0  0  0  0
   55.3998   58.0336   18.1347 H   0  0  0  0  0  0  0  0  0  0  0  0
   55.2777   57.1664   19.6466 H   0  0  0  0  0  0  0  0  0  0  0  0
   56.3878   58.5072   19.4959 H   0  0  0  0  0  0  0  0  0  0  0  0
   55.2004   52.1221   18.1582 H   0  0  0  0  0  0  0  0  0  0  0  0
   53.7734   52.6342   17.2896 H   0  0  0  0  0  0  0  0  0  0  0  0
   55.0623   51.8111   16.4444 H   0  0  0  0  0  0  0  0  0  0  0  0
   61.1220   57.7396   21.8628 H   0  0  0  0  0  0  0  0  0  0  0  0
   59.8556   58.0430   22.9512 H   0  0  0  0  0  0  0  0  0  0  0  0
   56.0409   53.5947   19.6403 H   0  0  0  0  0  0  0  0  0  0  0  0
   57.5131   53.0288   18.8181 H   0  0  0  0  0  0  0  0  0  0  0  0
   57.9916   52.3857   20.7093 H   0  0  0  0  0  0  0  0  0  0  0  0
   51.5765   53.8553   14.0138 H   0  0  0  0  0  0  0  0  0  0  0  0
  2  3  2  3
  3  4  1  0
  4  5  1  0
  5  6  1  0
  3  9  1  0
 10 11  1  0
  7 12  1  0
 11 12  1  0
 12 13  2  0
 13 14  1  0
 14 15  2  0
  1 16  1  0
 11 16  2  0
 15 16  1  0
  2 17  1  0
 14 17  1  0
  1 18  2  0
  1 19  1  0
 10 19  1  0
  8 20  1  0
 13 20  1  0
 15 21  1  0
  6 22  1  0
  6 23  2  0
  2 24  1  0
  4 25  1  0
  4 26  1  0
  5 27  1  0
  5 28  1  0
  7 29  1  0
  7 30  1  0
  7 31  1  0
  8 32  1  0
  8 33  1  0
  8 34  1  0
  9 35  1  0
  9 36  1  0
  9 37  1  0
 10 38  1  0
 10 39  1  0
 17 40  1  0
 17 41  1  0
 21 42  1  0
 22 43  1  0
M  END
