7SGV_L30_A_501
     RDKit          3D

 19 21  0  0  0  0  0  0  0  0999 V2000
   14.6666   63.9181   35.5918 O   0  0  0  0  0  0  0  0  0  0  0  0
   14.2278   64.8504   34.8869 C   0  0  0  0  0  0  0  0  0  0  0  0
   13.0789   64.5344   34.0312 C   0  0  0  0  0  0  0  0  0  0  0  0
   12.4449   63.3088   34.0553 C   0  0  0  0  0  0  0  0  0  0  0  0
   11.3583   63.0744   33.2156 C   0  0  0  0  0  0  0  0  0  0  0  0
   10.8847   64.0424   32.3443 C   0  0  0  0  0  0  0  0  0  0  0  0
   11.5215   65.2252   32.3427 N   0  0  0  0  0  0  0  0  0  0  0  0
   12.5703   65.4663   33.1462 C   0  0  0  0  0  0  0  0  0  0  0  0
   14.8225   66.1400   34.9255 N   0  0  0  0  0  0  0  0  0  0  0  0
   15.9722   66.4891   35.6712 C   0  0  0  0  0  0  0  0  0  0  0  0
   16.4853   65.7625   36.7104 C   0  0  0  0  0  0  0  0  0  0  0  0
   17.6300   66.1493   37.4214 C   0  0  0  0  0  0  0  0  0  0  0  0
   18.3036   67.2999   37.1007 C   0  0  0  0  0  0  0  0  0  0  0  0
   17.7964   68.0475   36.0499 C   0  0  0  0  0  0  0  0  0  0  0  0
   18.4920   69.2002   35.7472 C   0  0  0  0  0  0  0  0  0  0  0  0
   18.0717   70.0113   34.7231 C   0  0  0  0  0  0  0  0  0  0  0  0
   16.9559   69.6658   34.0048 C   0  0  0  0  0  0  0  0  0  0  0  0
   16.2660   68.4952   34.3269 C   0  0  0  0  0  0  0  0  0  0  0  0
   16.6588   67.6586   35.3469 C   0  0  0  0  0  0  0  0  0  0  0  0
  1  2  2  0
  2  3  1  0
  3  4  2  0
  4  5  1  0
  5  6  2  0
  6  7  1  0
  7  8  2  0
  3  8  1  0
  2  9  1  0
  9 10  1  0
 10 11  2  0
 11 12  1  0
 12 13  2  0
 13 14  1  0
 14 15  2  0
 15 16  1  0
 16 17  2  0
 17 18  1  0
 18 19  2  0
 14 19  1  0
 10 19  1  0
M  END
$$$$
