7UJ4_OQ4_B_601
     RDKit          3D

 91 95  0  0  0  0  0  0  0  0999 V2000
  -39.4866  -16.8909   21.2972 C   0  0  1  0  0  0  0  0  0  0  0  0
  -40.4798  -15.7262   21.4104 C   0  0  1  0  0  0  0  0  0  0  0  0
  -41.8004  -16.0556   20.7038 C   0  0  1  0  0  0  0  0  0  0  0  0
  -40.6985  -15.3520   22.8257 N   0  0  0  0  0  0  0  0  0  0  0  0
  -42.0063  -15.6082   23.4475 C   0  0  1  0  0  0  0  0  0  0  0  0
  -42.6573  -14.3131   23.9351 C   0  0  1  0  0  0  0  0  0  0  0  0
  -39.6338  -14.8210   23.6414 C   0  0  0  0  0  0  0  0  0  0  0  0
  -38.4906  -15.3563   23.6099 O   0  0  0  0  0  0  0  0  0  0  0  0
  -39.8855  -13.6967   24.5694 C   0  0  0  0  0  0  0  0  0  0  0  0
  -40.4190  -12.4961   24.0706 C   0  0  0  0  0  0  0  0  0  0  0  0
  -40.6680  -11.4195   24.9306 C   0  0  0  0  0  0  0  0  0  0  0  0
  -41.1842  -10.2612   24.4405 F   0  0  0  0  0  0  0  0  0  0  0  0
  -40.3949  -11.5365   26.2945 C   0  0  0  0  0  0  0  0  0  0  0  0
  -39.8538  -12.7194   26.8020 C   0  0  0  0  0  0  0  0  0  0  0  0
  -39.5770  -13.8053   25.9450 C   0  0  0  0  0  0  0  0  0  0  0  0
  -39.0294  -15.0040   26.4413 O   0  0  0  0  0  0  0  0  0  0  0  0
  -38.5675  -15.1858   27.7521 C   0  0  0  0  0  0  0  0  0  0  0  0
  -39.3369  -15.9201   28.6557 C   0  0  0  0  0  0  0  0  0  0  0  0
  -38.9395  -16.0394   29.9507 N   0  0  0  0  0  0  0  0  0  0  0  0
  -37.7919  -15.4589   30.3847 C   0  0  0  0  0  0  0  0  0  0  0  0
  -37.0062  -14.7713   29.5137 N   0  0  0  0  0  0  0  0  0  0  0  0
  -37.3552  -14.6373   28.2064 C   0  0  0  0  0  0  0  0  0  0  0  0
  -36.4516  -14.0039   27.2977 N   0  0  0  0  0  0  0  0  0  0  0  0
  -35.2301  -14.3827   26.5589 C   0  0  1  0  0  0  0  0  0  0  0  0
  -36.1858  -12.6440   26.7878 C   0  0  2  0  0  0  0  0  0  0  0  0
  -34.9618  -13.0132   25.9935 C   0  0  1  0  0  0  0  0  0  0  0  0
  -33.6596  -12.3529   26.4715 C   0  0  2  0  0  0  0  0  0  0  0  0
  -32.4702  -12.9295   25.6947 C   0  0  2  0  0  0  0  0  0  0  0  0
  -35.1269  -12.9243   24.4689 C   0  0  1  0  0  0  0  0  0  0  0  0
  -33.8766  -13.4896   23.7797 C   0  0  1  0  0  0  0  0  0  0  0  0
  -32.6497  -12.7821   24.2302 N   0  0  0  0  0  0  0  0  0  0  0  0
  -31.4408  -13.3209   23.5551 C   0  0  2  0  0  0  0  0  0  0  0  0
  -30.6898  -12.2641   22.7127 C   0  0  1  0  0  0  0  0  0  0  0  0
  -30.8395  -10.8365   23.3032 C   0  0  2  0  0  0  0  0  0  0  0  0
  -29.6282   -9.9184   23.0235 C   0  0  2  0  0  0  0  0  0  0  0  0
  -29.2067  -12.6468   22.5639 C   0  0  1  0  0  0  0  0  0  0  0  0
  -28.4774  -11.6997   21.5887 C   0  0  2  0  0  0  0  0  0  0  0  0
  -28.9564  -10.2157   21.6698 C   0  0  1  0  0  0  0  0  0  0  0  0
  -29.8916   -9.8660   20.5817 N   0  0  0  0  0  0  0  0  0  0  0  0
  -29.1053   -8.9892   19.3043 S   0  0  2  0  0  6  0  0  0  0  0  0
  -28.2766   -7.8776   19.8956 O   0  0  0  0  0  0  0  0  0  0  0  0
  -30.1594   -8.3974   18.4083 O   0  0  0  0  0  0  0  0  0  0  0  0
  -28.0553  -10.0689   18.3380 C   0  0  1  0  0  0  0  0  0  0  0  0
  -26.6376   -9.5166   18.2602 C   0  0  2  0  0  0  0  0  0  0  0  0
  -39.9285  -17.7114   20.6831 H   0  0  0  0  0  0  0  0  0  0  0  0
  -38.5565  -16.5377   20.7969 H   0  0  0  0  0  0  0  0  0  0  0  0
  -39.2305  -17.2947   22.3024 H   0  0  0  0  0  0  0  0  0  0  0  0
  -40.0332  -14.8623   20.8631 H   0  0  0  0  0  0  0  0  0  0  0  0
  -41.8036  -17.1261   20.3975 H   0  0  0  0  0  0  0  0  0  0  0  0
  -42.6719  -15.8841   21.3730 H   0  0  0  0  0  0  0  0  0  0  0  0
  -41.9112  -15.4275   19.7882 H   0  0  0  0  0  0  0  0  0  0  0  0
  -42.6764  -16.0930   22.7046 H   0  0  0  0  0  0  0  0  0  0  0  0
  -41.9002  -16.3159   24.3044 H   0  0  0  0  0  0  0  0  0  0  0  0
  -42.0665  -13.8725   24.7625 H   0  0  0  0  0  0  0  0  0  0  0  0
  -42.7380  -13.5732   23.1043 H   0  0  0  0  0  0  0  0  0  0  0  0
  -43.6775  -14.5346   24.3167 H   0  0  0  0  0  0  0  0  0  0  0  0
  -40.6382  -12.3851   23.0169 H   0  0  0  0  0  0  0  0  0  0  0  0
  -40.6045  -10.7141   26.9652 H   0  0  0  0  0  0  0  0  0  0  0  0
  -39.6638  -12.7868   27.8682 H   0  0  0  0  0  0  0  0  0  0  0  0
  -40.2638  -16.3741   28.3328 H   0  0  0  0  0  0  0  0  0  0  0  0
  -37.4923  -15.5550   31.4184 H   0  0  0  0  0  0  0  0  0  0  0  0
  -34.4459  -14.7385   27.2669 H   0  0  0  0  0  0  0  0  0  0  0  0
  -35.4478  -15.1487   25.7861 H   0  0  0  0  0  0  0  0  0  0  0  0
  -35.9836  -11.9424   27.6306 H   0  0  0  0  0  0  0  0  0  0  0  0
  -37.0341  -12.2895   26.1552 H   0  0  0  0  0  0  0  0  0  0  0  0
  -33.5067  -12.5183   27.5610 H   0  0  0  0  0  0  0  0  0  0  0  0
  -33.7212  -11.2552   26.3024 H   0  0  0  0  0  0  0  0  0  0  0  0
  -32.3370  -14.0029   25.9664 H   0  0  0  0  0  0  0  0  0  0  0  0
  -31.5592  -12.3772   26.0242 H   0  0  0  0  0  0  0  0  0  0  0  0
  -36.0257  -13.4890   24.1314 H   0  0  0  0  0  0  0  0  0  0  0  0
  -35.2581  -11.8577   24.1737 H   0  0  0  0  0  0  0  0  0  0  0  0
  -33.7979  -14.5846   23.9704 H   0  0  0  0  0  0  0  0  0  0  0  0
  -34.0359  -13.3447   22.6929 H   0  0  0  0  0  0  0  0  0  0  0  0
  -31.7105  -14.1871   22.9031 H   0  0  0  0  0  0  0  0  0  0  0  0
  -30.7255  -13.7008   24.3225 H   0  0  0  0  0  0  0  0  0  0  0  0
  -31.1200  -12.2795   21.6884 H   0  0  0  0  0  0  0  0  0  0  0  0
  -30.9846  -10.8800   24.4058 H   0  0  0  0  0  0  0  0  0  0  0  0
  -31.7527  -10.3739   22.8742 H   0  0  0  0  0  0  0  0  0  0  0  0
  -28.8767  -10.0575   23.8305 H   0  0  0  0  0  0  0  0  0  0  0  0
  -29.9543   -8.8560   23.0604 H   0  0  0  0  0  0  0  0  0  0  0  0
  -28.7100  -12.6051   23.5586 H   0  0  0  0  0  0  0  0  0  0  0  0
  -29.1136  -13.6916   22.1872 H   0  0  0  0  0  0  0  0  0  0  0  0
  -28.5904  -12.0919   20.5540 H   0  0  0  0  0  0  0  0  0  0  0  0
  -27.3914  -11.7399   21.8217 H   0  0  0  0  0  0  0  0  0  0  0  0
  -28.0510   -9.5679   21.6219 H   0  0  0  0  0  0  0  0  0  0  0  0
  -30.3198  -10.7192   20.1609 H   0  0  0  0  0  0  0  0  0  0  0  0
  -28.0286  -11.0778   18.8026 H   0  0  0  0  0  0  0  0  0  0  0  0
  -28.4674  -10.1653   17.3098 H   0  0  0  0  0  0  0  0  0  0  0  0
  -26.0662  -10.0793   17.4882 H   0  0  0  0  0  0  0  0  0  0  0  0
  -26.1218   -9.6267   19.2370 H   0  0  0  0  0  0  0  0  0  0  0  0
  -26.6611   -8.4423   17.9736 H   0  0  0  0  0  0  0  0  0  0  0  0
  1  2  1  0
  2  3  1  0
  2  4  1  0
  4  5  1  0
  5  6  1  0
  4  7  1  0
  7  8  2  0
  7  9  1  0
  9 10  2  0
 10 11  1  0
 11 12  1  0
 11 13  2  0
 13 14  1  0
  9 15  1  0
 14 15  2  0
 15 16  1  0
 16 17  1  0
 17 18  2  0
 18 19  1  0
 19 20  2  0
 20 21  1  0
 21 22  2  0
 17 22  1  0
 22 23  1  0
 23 24  1  0
 23 25  1  0
 26 24  1  6
 25 26  1  0
 26 27  1  0
 27 28  1  0
 26 29  1  0
 29 30  1  0
 30 31  1  0
 28 31  1  0
 31 32  1  0
 33 32  1  0
 33 34  1  0
 34 35  1  0
 33 36  1  0
 36 37  1  0
 37 38  1  0
 35 38  1  0
 38 39  1  0
 40 39  1  1
 40 41  2  0
 40 42  2  0
 40 43  1  0
 43 44  1  0
  1 45  1  6
  1 46  1  0
  1 47  1  0
  2 48  1  6
  3 49  1  6
  3 50  1  0
  3 51  1  0
  5 52  1  6
  5 53  1  0
  6 54  1  1
  6 55  1  0
  6 56  1  0
 10 57  1  0
 13 58  1  0
 14 59  1  0
 18 60  1  0
 20 61  1  0
 24 62  1  1
 24 63  1  0
 25 64  1  1
 25 65  1  0
 27 66  1  1
 27 67  1  0
 28 68  1  6
 28 69  1  0
 29 70  1  6
 29 71  1  0
 30 72  1  6
 30 73  1  0
 32 74  1  6
 32 75  1  0
 33 76  1  6
 34 77  1  1
 34 78  1  0
 35 79  1  1
 35 80  1  0
 36 81  1  1
 36 82  1  0
 37 83  1  6
 37 84  1  0
 38 85  1  6
 39 86  1  0
 43 87  1  1
 43 88  1  0
 44 89  1  6
 44 90  1  0
 44 91  1  0
M  END
