
     RDKit          3D

 28 31  0  0  0  0  0  0  0  0999 V2000
   15.1667  -23.4405   59.1484 C   0  0  0  0  0  0  0  0  0  0  0  0
   14.6034  -24.2935   58.0142 C   0  0  0  0  0  0  0  0  0  0  0  0
   14.2956  -23.4269   56.7870 C   0  0  0  0  0  0  0  0  0  0  0  0
   17.1549  -19.9831   57.4232 C   0  0  0  0  0  0  0  0  0  0  0  0
   17.6562  -21.3501   56.9367 C   0  0  0  0  0  0  0  0  0  0  0  0
   17.9755  -21.2526   55.4374 C   0  0  0  0  0  0  0  0  0  0  0  0
   16.6292  -22.4872   57.2329 C   0  0  0  0  0  0  0  0  0  0  0  0
   16.4779  -22.7562   58.7518 C   0  0  0  0  0  0  0  0  0  0  0  0
   15.2386  -22.2286   56.6246 C   0  0  0  0  0  0  0  0  0  0  0  0
   12.2135  -24.3795   58.6479 C   0  0  0  0  0  0  0  0  0  0  0  0
   11.0200  -25.2677   58.5324 C   0  0  0  0  0  0  0  0  0  0  0  0
   11.0810  -26.7224   58.6724 C   0  0  0  0  0  0  0  0  0  0  0  0
    9.9760  -27.4859   58.5554 C   0  0  0  0  0  0  0  0  0  0  0  0
    8.7209  -26.8749   58.2781 C   0  0  0  0  0  0  0  0  0  0  0  0
    6.6893  -26.3168   57.8534 C   0  0  0  0  0  0  0  0  0  0  0  0
    7.4112  -25.1404   57.8411 C   0  0  0  0  0  0  0  0  0  0  0  0
    9.8377  -24.6941   58.2359 C   0  0  0  0  0  0  0  0  0  0  0  0
    5.2591  -26.4644   57.6176 C   0  0  0  0  0  0  0  0  0  0  0  0
    4.3749  -25.3770   57.6704 C   0  0  0  0  0  0  0  0  0  0  0  0
    3.0071  -25.5569   57.4385 C   0  0  0  0  0  0  0  0  0  0  0  0
    2.5064  -26.8247   57.1511 C   0  0  0  0  0  0  0  0  0  0  0  0
    3.3714  -27.9143   57.0947 C   0  0  0  0  0  0  0  0  0  0  0  0
    4.7377  -27.7340   57.3264 C   0  0  0  0  0  0  0  0  0  0  0  0
   13.4152  -25.0157   58.4448 N   0  0  0  0  0  0  0  0  0  0  0  0
    7.5188  -27.3858   58.1285 N   0  0  0  0  0  0  0  0  0  0  0  0
    8.7075  -25.4953   58.1165 N   0  0  0  0  0  0  0  0  0  0  0  0
   18.8729  -21.6402   57.6310 O   0  0  0  0  0  0  0  0  0  0  0  0
   12.1032  -23.1929   58.9349 O   0  0  0  0  0  0  0  0  0  0  0  0
  1  2  1  0
  2  3  1  0
  4  5  1  0
  5  6  1  0
  7  5  1  0
  1  8  1  0
  7  8  1  0
  3  9  1  0
  7  9  1  0
 10 11  1  0
 11 12  4  0
 12 13  4  0
 13 14  4  0
 15 16  4  0
 11 17  4  0
 15 18  1  0
 18 19  4  0
 19 20  4  0
 20 21  4  0
 21 22  4  0
 22 23  4  0
 18 23  4  0
 10 24  1  0
  2 24  1  0
 15 25  4  0
 14 25  4  0
 16 26  4  0
 14 26  4  0
 17 26  4  0
  5 27  1  0
 10 28  2  0
M  END
