7UTW_NAI_A_403
     RDKit          3D

 44 48  0  0  0  0  0  0  0  0999 V2000
   15.0720  -26.2814   -2.7172 P   0  0  2  0  0  5  0  0  0  0  0  0
   14.8995  -27.2546   -1.5572 O   0  0  0  0  0  0  0  0  0  0  0  0
   13.5583  -25.5626   -2.9955 O   0  0  0  0  0  0  0  0  0  0  0  0
   15.6897  -27.0290   -4.0894 O   0  0  0  0  0  0  0  0  0  0  0  0
   16.1757  -28.3188   -3.8072 C   0  0  0  0  0  0  0  0  0  0  0  0
   15.6889  -29.2226   -4.8875 C   0  0  1  0  0  0  0  0  0  0  0  0
   16.4576  -29.0864   -6.0638 O   0  0  0  0  0  0  0  0  0  0  0  0
   15.9631  -30.6845   -4.5835 C   0  0  1  0  0  0  0  0  0  0  0  0
   15.1177  -31.2014   -3.6259 O   0  0  0  0  0  0  0  0  0  0  0  0
   15.7096  -31.2939   -5.9669 C   0  0  1  0  0  0  0  0  0  0  0  0
   14.3238  -31.5720   -5.9830 O   0  0  0  0  0  0  0  0  0  0  0  0
   16.0615  -30.1538   -6.8644 C   0  0  2  0  0  0  0  0  0  0  0  0
   17.0593  -30.4736   -7.8669 N   0  0  0  0  0  0  0  0  0  0  0  0
   18.3929  -30.5125   -7.5819 C   0  0  0  0  0  0  0  0  0  0  0  0
   19.0594  -30.8391   -8.7237 N   0  0  0  0  0  0  0  0  0  0  0  0
   18.1647  -31.0049   -9.7178 C   0  0  0  0  0  0  0  0  0  0  0  0
   18.3080  -31.3351  -11.0515 C   0  0  0  0  0  0  0  0  0  0  0  0
   19.5929  -31.5792  -11.6403 N   0  0  0  0  0  0  0  0  0  0  0  0
   17.1728  -31.4239  -11.8046 N   0  0  0  0  0  0  0  0  0  0  0  0
   15.9594  -31.1905  -11.2358 C   0  0  0  0  0  0  0  0  0  0  0  0
   15.8258  -30.8693   -9.9365 N   0  0  0  0  0  0  0  0  0  0  0  0
   16.9035  -30.7725   -9.1687 C   0  0  0  0  0  0  0  0  0  0  0  0
   16.1249  -25.0757   -2.1424 O   0  0  0  0  0  0  0  0  0  0  0  0
   17.6707  -25.3683   -2.7976 P   0  0  2  0  0  5  0  0  0  0  0  0
   18.8812  -24.7943   -1.7884 O   0  0  0  0  0  0  0  0  0  0  0  0
   17.7295  -24.5532   -4.0824 O   0  0  0  0  0  0  0  0  0  0  0  0
   17.9113  -27.0121   -3.1134 O   0  0  0  0  0  0  0  0  0  0  0  0
   18.7137  -27.1470   -4.2452 C   0  0  0  0  0  0  0  0  0  0  0  0
   19.2526  -28.5571   -4.2993 C   0  0  1  0  0  0  0  0  0  0  0  0
   19.5935  -28.9926   -5.5539 O   0  0  0  0  0  0  0  0  0  0  0  0
   20.5267  -28.6767   -3.4514 C   0  0  1  0  0  0  0  0  0  0  0  0
   20.2607  -28.7332   -2.1006 O   0  0  0  0  0  0  0  0  0  0  0  0
   21.0034  -30.0225   -4.0164 C   0  0  1  0  0  0  0  0  0  0  0  0
   20.1529  -31.0430   -3.5011 O   0  0  0  0  0  0  0  0  0  0  0  0
   20.6856  -29.8519   -5.4650 C   0  0  2  0  0  0  0  0  0  0  0  0
   21.7687  -29.2280   -6.1601 N   0  0  0  0  0  0  0  0  0  0  0  0
   22.0005  -29.6793   -7.5152 C   0  0  0  0  0  0  0  0  0  0  0  0
   22.9717  -29.1706   -8.2418 C   0  0  0  0  0  0  0  0  0  0  0  0
   23.1337  -29.6920   -9.6142 C   0  0  0  0  0  0  0  0  0  0  0  0
   24.0781  -29.2985  -10.3604 O   0  0  0  0  0  0  0  0  0  0  0  0
   22.2446  -30.6557  -10.1643 N   0  0  0  0  0  0  0  0  0  0  0  0
   23.9092  -28.1271   -7.8045 C   0  0  0  0  0  0  0  0  0  0  0  0
   23.6055  -27.7238   -6.4164 C   0  0  0  0  0  0  0  0  0  0  0  0
   22.6318  -28.2305   -5.6807 C   0  0  0  0  0  0  0  0  0  0  0  0
  1  2  2  0
  1  3  1  6
  1  4  1  0
  5  4  1  1
  6  5  1  0
  6  7  1  6
  6  8  1  0
  8  9  1  1
  8 10  1  0
 10 11  1  1
  7 12  1  0
 10 12  1  0
 12 13  1  6
 13 14  1  0
 14 15  2  0
 15 16  1  0
 16 17  2  0
 17 18  1  0
 17 19  1  0
 19 20  2  0
 20 21  1  0
 13 22  1  0
 16 22  1  0
 21 22  2  0
  1 23  1  0
 24 23  1  0
 24 25  1  1
 24 26  2  0
 24 27  1  0
 28 27  1  6
 29 28  1  0
 29 30  1  6
 29 31  1  0
 31 32  1  1
 31 33  1  0
 33 34  1  1
 30 35  1  0
 33 35  1  0
 35 36  1  6
 36 37  1  0
 37 38  2  0
 38 39  1  0
 39 40  2  0
 39 41  1  0
 38 42  1  0
 42 43  1  6
 36 44  1  0
 43 44  2  0
M  END
$$$$
