7X9K_8OG_A_202
     RDKit          3D

 38 40  0  0  0  0  0  0  0  0999 V2000
   -9.3530   -0.9649   20.2161 O   0  0  0  0  0  0  0  0  0  0  0  0
   -7.7487   -0.4237   20.2330 P   0  0  1  0  0  5  0  0  0  0  0  0
   -7.1352   -0.6258   18.8656 O   0  0  0  0  0  0  0  0  0  0  0  0
   -7.7252    1.2262   20.6059 O   0  0  0  0  0  0  0  0  0  0  0  0
   -6.8486   -1.2707   21.4089 O   0  0  0  0  0  0  0  0  0  0  0  0
   -7.7484   -1.8785   22.3055 C   0  0  2  0  0  0  0  0  0  0  0  0
   -6.9744   -2.3826   23.5262 C   0  0  1  0  0  0  0  0  0  0  0  0
   -6.3423   -1.3044   24.1745 O   0  0  0  0  0  0  0  0  0  0  0  0
   -7.8902   -3.0601   24.5407 C   0  0  1  0  0  0  0  0  0  0  0  0
   -8.0870   -4.4272   24.2696 O   0  0  0  0  0  0  0  0  0  0  0  0
   -7.1788   -2.8228   25.8469 C   0  0  2  0  0  0  0  0  0  0  0  0
   -6.2878   -1.6154   25.5520 C   0  0  2  0  0  0  0  0  0  0  0  0
   -6.7138   -0.4545   26.3394 N   0  0  0  0  0  0  0  0  0  0  0  0
   -7.7904    0.3567   26.1506 C   0  0  0  0  0  0  0  0  0  0  0  0
   -7.9480    1.2826   27.1303 N   0  0  0  0  0  0  0  0  0  0  0  0
   -6.9335    1.0211   27.9727 C   0  0  0  0  0  0  0  0  0  0  0  0
   -6.5984    1.6181   29.1789 C   0  0  0  0  0  0  0  0  0  0  0  0
   -7.2663    2.5824   29.6386 O   0  0  0  0  0  0  0  0  0  0  0  0
   -5.5185    1.1239   29.8584 N   0  0  0  0  0  0  0  0  0  0  0  0
   -4.7921    0.0630   29.3661 C   0  0  0  0  0  0  0  0  0  0  0  0
   -3.6732   -0.4396   30.0961 N   0  0  0  0  0  0  0  0  0  0  0  0
   -5.1381   -0.5195   28.1766 N   0  0  0  0  0  0  0  0  0  0  0  0
   -6.2019   -0.0194   27.5037 C   0  0  0  0  0  0  0  0  0  0  0  0
   -8.5777    0.2542   25.1724 O   0  0  0  0  0  0  0  0  0  0  0  0
   -9.4789   -1.4072   21.0933 H   0  0  0  0  0  0  0  0  0  0  0  0
   -7.7272    1.2605   21.5956 H   0  0  0  0  0  0  0  0  0  0  0  0
   -8.2489   -2.7503   21.8252 H   0  0  0  0  0  0  0  0  0  0  0  0
   -8.5167   -1.1485   22.6486 H   0  0  0  0  0  0  0  0  0  0  0  0
   -6.1877   -3.0919   23.1811 H   0  0  0  0  0  0  0  0  0  0  0  0
   -8.8797   -2.5512   24.5748 H   0  0  0  0  0  0  0  0  0  0  0  0
   -7.1975   -4.8650   24.2119 H   0  0  0  0  0  0  0  0  0  0  0  0
   -6.5461   -3.6940   26.1272 H   0  0  0  0  0  0  0  0  0  0  0  0
   -7.9051   -2.6311   26.6678 H   0  0  0  0  0  0  0  0  0  0  0  0
   -5.2338   -1.8643   25.8082 H   0  0  0  0  0  0  0  0  0  0  0  0
   -8.6942    2.0078   27.2199 H   0  0  0  0  0  0  0  0  0  0  0  0
   -5.2452    1.5582   30.7689 H   0  0  0  0  0  0  0  0  0  0  0  0
   -3.4201   -0.0399   31.0269 H   0  0  0  0  0  0  0  0  0  0  0  0
   -3.0941   -1.2151   29.7045 H   0  0  0  0  0  0  0  0  0  0  0  0
  2  1  1  6
  2  3  2  0
  2  4  1  0
  2  5  1  0
  5  6  1  0
  7  6  1  0
  7  8  1  0
  7  9  1  0
  9 10  1  0
  9 11  1  0
  8 12  1  0
 11 12  1  0
 12 13  1  0
 13 14  1  0
 14 15  1  0
 15 16  1  0
 16 17  1  0
 17 18  2  0
 17 19  1  0
 19 20  1  0
 20 21  1  0
 20 22  2  0
 13 23  1  0
 16 23  2  0
 22 23  1  0
 14 24  2  0
  1 25  1  0
  4 26  1  0
  6 27  1  6
  6 28  1  0
  7 29  1  6
  9 30  1  1
 10 31  1  0
 11 32  1  1
 11 33  1  0
 12 34  1  1
 15 35  1  0
 19 36  1  0
 21 37  1  0
 21 38  1  0
M  END
