@<TRIPOS>MOLECULE
1JLA_TNK_A_999
 51 53 0 0 0
SMALL
GASTEIGER

@<TRIPOS>ATOM
      1 C          -1.3780  -34.4600   27.0050 C.ar    1  UNL1       -0.0416
      2 C          -2.1390  -33.8020   27.9850 C.ar    1  UNL1       -0.0582
      3 C          -1.5300  -32.8260   28.8160 C.ar    1  UNL1       -0.0615
      4 C          -0.1520  -32.5130   28.6540 C.ar    1  UNL1       -0.0617
      5 C           0.6070  -33.1720   27.6660 C.ar    1  UNL1       -0.0615
      6 C          -0.0120  -34.1430   26.8430 C.ar    1  UNL1       -0.0582
      7 C          -1.8260  -35.6760   24.6790 C.ar    1  UNL1        0.0385
      8 N          -2.6010  -34.8070   23.8740 N.ar    1  UNL1       -0.2734
      9 C          -2.5220  -34.8430   22.4620 C.ar    1  UNL1        0.3313
     10 O          -3.2020  -34.1350   21.7220 O.2     1  UNL1       -0.2464
     11 N          -1.6430  -35.7660   21.9260 N.ar    1  UNL1       -0.2746
     12 C          -0.8410  -36.6590   22.6310 C.ar    1  UNL1        0.2576
     13 O          -0.0970  -37.4240   22.0200 O.2     1  UNL1       -0.2674
     14 C          -0.9480  -36.6120   24.0760 C.ar    1  UNL1        0.0394
     15 C          -2.0230  -35.5800   26.2030 C.3     1  UNL1        0.0136
     16 C          -0.1340  -37.7070   24.7950 C.3     1  UNL1       -0.0147
     17 C          -0.9790  -38.7840   25.5020 C.3     1  UNL1       -0.0584
     18 C           1.0590  -37.1900   25.5710 C.3     1  UNL1       -0.0584
     19 C          -3.5950  -33.8570   24.4600 C.3     1  UNL1        0.1289
     20 O          -4.8720  -34.0610   23.8810 O.3     1  UNL1       -0.3546
     21 C          -5.9150  -33.9310   24.8330 C.3     1  UNL1        0.0749
     22 C          -7.0520  -34.8480   24.5050 C.ar    1  UNL1       -0.0219
     23 C          -6.9530  -35.7380   23.4180 C.ar    1  UNL1       -0.0564
     24 C          -7.9700  -36.6810   23.1770 C.ar    1  UNL1       -0.0614
     25 C          -9.0930  -36.7290   24.0330 C.ar    1  UNL1       -0.0617
     26 C          -9.1890  -35.8280   25.1210 C.ar    1  UNL1       -0.0614
     27 C          -8.1640  -34.8880   25.3500 C.ar    1  UNL1       -0.0564
     28 H          -3.1393  -34.0278   28.1006 H       1  UNL1        0.0620
     29 H          -2.0872  -32.3432   29.5381 H       1  UNL1        0.0618
     30 H           0.2915  -31.8043   29.2591 H       1  UNL1        0.0618
     31 H           1.6070  -32.9481   27.5435 H       1  UNL1        0.0618
     32 H           0.5412  -34.6243   26.1168 H       1  UNL1        0.0620
     33 H          -1.5776  -35.7946   20.9441 H       1  UNL1        0.1734
     34 H          -3.0773  -35.5061   26.3699 H       1  UNL1        0.0376
     35 H          -1.5152  -36.4506   26.5623 H       1  UNL1        0.0376
     36 H           0.3197  -38.2614   24.0002 H       1  UNL1        0.0346
     37 H          -1.4927  -38.3462   26.3323 H       1  UNL1        0.0235
     38 H          -0.3390  -39.5671   25.8513 H       1  UNL1        0.0235
     39 H          -1.6922  -39.1867   24.8135 H       1  UNL1        0.0235
     40 H           0.7189  -36.6109   26.4040 H       1  UNL1        0.0235
     41 H           1.6613  -36.5775   24.9330 H       1  UNL1        0.0235
     42 H           1.6399  -38.0162   25.9244 H       1  UNL1        0.0235
     43 H          -3.2778  -32.8529   24.2701 H       1  UNL1        0.0801
     44 H          -3.6599  -34.0282   25.5142 H       1  UNL1        0.0801
     45 H          -6.2675  -32.9207   24.8313 H       1  UNL1        0.0611
     46 H          -5.5326  -34.1906   25.7980 H       1  UNL1        0.0611
     47 H          -6.1310  -35.6987   22.7952 H       1  UNL1        0.0621
     48 H          -7.8958  -37.3329   22.3804 H       1  UNL1        0.0618
     49 H          -9.8417  -37.4193   23.8656 H       1  UNL1        0.0618
     50 H         -10.0094  -35.8595   25.7463 H       1  UNL1        0.0618
     51 H          -8.2348  -34.2296   26.1415 H       1  UNL1        0.0621
@<TRIPOS>BOND
     1     1     2   ar
     2     2     3   ar
     3     3     4   ar
     4     4     5   ar
     5     1     6   ar
     6     5     6   ar
     7     7     8   ar
     8     8     9   ar
     9     9    10    2
    10     9    11   ar
    11    11    12   ar
    12    12    13    2
    13     7    14   ar
    14    12    14   ar
    15     1    15    1
    16     7    15    1
    17    14    16    1
    18    16    17    1
    19    16    18    1
    20     8    19    1
    21    19    20    1
    22    20    21    1
    23    21    22    1
    24    22    23   ar
    25    23    24   ar
    26    24    25   ar
    27    25    26   ar
    28    22    27   ar
    29    26    27   ar
    30     2    28    1
    31     3    29    1
    32     4    30    1
    33     5    31    1
    34     6    32    1
    35    11    33    1
    36    15    34    1
    37    15    35    1
    38    16    36    1
    39    17    37    1
    40    17    38    1
    41    17    39    1
    42    18    40    1
    43    18    41    1
    44    18    42    1
    45    19    43    1
    46    19    44    1
    47    21    45    1
    48    21    46    1
    49    23    47    1
    50    24    48    1
    51    25    49    1
    52    26    50    1
    53    27    51    1
