1T46_STI_A_3
     RDKit          3D

 37 41  0  0  0  0  0  0  0  0999 V2000
   32.7865   24.8198   46.9473 C   0  0  0  0  0  0  0  0  0  0  0  0
   31.7966   25.6113   46.3589 C   0  0  0  0  0  0  0  0  0  0  0  0
   30.6215   25.0315   45.9278 C   0  0  0  0  0  0  0  0  0  0  0  0
   30.4618   23.6733   46.0942 C   0  0  0  0  0  0  0  0  0  0  0  0
   31.4252   22.9278   46.6623 N   0  0  0  0  0  0  0  0  0  0  0  0
   32.5932   23.4510   47.1003 C   0  0  0  0  0  0  0  0  0  0  0  0
   29.6168   25.8935   45.3201 C   0  0  0  0  0  0  0  0  0  0  0  0
   29.7683   27.2526   45.1674 C   0  0  0  0  0  0  0  0  0  0  0  0
   28.7448   27.9450   44.5795 C   0  0  0  0  0  0  0  0  0  0  0  0
   27.6402   27.3076   44.1719 N   0  0  0  0  0  0  0  0  0  0  0  0
   27.4627   26.0035   44.3035 C   0  0  0  0  0  0  0  0  0  0  0  0
   28.4863   25.3135   44.8911 N   0  0  0  0  0  0  0  0  0  0  0  0
   26.3224   25.2710   43.8966 N   0  0  0  0  0  0  0  0  0  0  0  0
   25.1551   25.7784   43.3188 C   0  0  0  0  0  0  0  0  0  0  0  0
   24.0878   26.1643   44.1507 C   0  0  0  0  0  0  0  0  0  0  0  0
   22.9164   26.6710   43.6353 C   0  0  0  0  0  0  0  0  0  0  0  0
   22.7240   26.8278   42.2901 C   0  0  0  0  0  0  0  0  0  0  0  0
   23.7521   26.4582   41.4524 C   0  0  0  0  0  0  0  0  0  0  0  0
   24.9295   25.9486   41.9722 C   0  0  0  0  0  0  0  0  0  0  0  0
   23.5505   26.6228   40.0562 N   0  0  0  0  0  0  0  0  0  0  0  0
   24.3931   25.9211   39.1491 C   0  0  0  0  0  0  0  0  0  0  0  0
   24.1325   25.8576   37.7148 C   0  0  0  0  0  0  0  0  0  0  0  0
   23.0900   26.5860   37.2101 C   0  0  0  0  0  0  0  0  0  0  0  0
   22.8142   26.5466   35.8407 C   0  0  0  0  0  0  0  0  0  0  0  0
   23.5516   25.7987   34.9588 C   0  0  0  0  0  0  0  0  0  0  0  0
   24.6077   25.0676   35.5051 C   0  0  0  0  0  0  0  0  0  0  0  0
   24.8919   25.0965   36.8538 C   0  0  0  0  0  0  0  0  0  0  0  0
   23.2897   25.7298   33.5011 C   0  0  0  0  0  0  0  0  0  0  0  0
   23.7136   26.9164   32.8735 N   0  0  0  0  0  0  0  0  0  0  0  0
   24.8252   27.5792   33.3989 C   0  0  0  0  0  0  0  0  0  0  0  0
   25.4893   28.6165   32.5747 C   0  0  0  0  0  0  0  0  0  0  0  0
   24.6406   29.2730   31.6331 N   0  0  0  0  0  0  0  0  0  0  0  0
   24.0462   30.4959   32.0678 C   0  0  0  0  0  0  0  0  0  0  0  0
   23.7786   28.3902   30.9035 C   0  0  0  0  0  0  0  0  0  0  0  0
   23.0935   27.3422   31.6985 C   0  0  0  0  0  0  0  0  0  0  0  0
   25.4209   25.3161   39.5764 O   0  0  0  0  0  0  0  0  0  0  0  0
   24.2298   26.0203   45.6229 C   0  0  0  0  0  0  0  0  0  0  0  0
  1  2  2  0
  2  3  1  0
  3  4  2  0
  4  5  1  0
  1  6  1  0
  5  6  2  0
  3  7  1  0
  7  8  2  0
  8  9  1  0
  9 10  2  0
 10 11  1  0
  7 12  1  0
 11 12  2  0
 11 13  1  0
 13 14  1  0
 14 15  2  0
 15 16  1  0
 16 17  2  0
 17 18  1  0
 14 19  1  0
 18 19  2  0
 18 20  1  0
 20 21  1  0
 21 22  1  0
 22 23  2  0
 23 24  1  0
 24 25  2  0
 25 26  1  0
 22 27  1  0
 26 27  2  0
 25 28  1  0
 28 29  1  1
 30 29  1  6
 30 31  1  0
 31 32  1  6
 33 32  1  1
 34 32  1  6
 35 29  1  1
 34 35  1  0
 21 36  2  0
 37 15  1  1
M  END
$$$$
