7SDD_4IP_A_500
     RDKit          3D

 44 44  0  0  0  0  0  0  0  0999 V2000
    2.7668   -3.6517    1.5895 C   0  0  1  0  0  0  0  0  0  0  0  0
    3.0851   -2.3767    1.0547 O   0  0  0  0  0  0  0  0  0  0  0  0
    2.6881   -4.7030    0.4406 C   0  0  1  0  0  0  0  0  0  0  0  0
    3.4969   -4.3292   -0.6494 O   0  0  0  0  0  0  0  0  0  0  0  0
    3.1061   -6.1018    0.9247 C   0  0  1  0  0  0  0  0  0  0  0  0
    2.9737   -7.0146   -0.1528 O   0  0  0  0  0  0  0  0  0  0  0  0
    4.5781   -6.1191    1.4200 C   0  0  2  0  0  0  0  0  0  0  0  0
    4.7021   -7.1686    2.3658 O   0  0  0  0  0  0  0  0  0  0  0  0
    5.0267   -4.7777    2.0769 C   0  0  1  0  0  0  0  0  0  0  0  0
    5.6564   -3.9726    1.0923 O   0  0  0  0  0  0  0  0  0  0  0  0
    3.8247   -4.0080    2.6712 C   0  0  2  0  0  0  0  0  0  0  0  0
    3.2245   -4.7703    3.6902 O   0  0  0  0  0  0  0  0  0  0  0  0
    4.0666   -2.5429   -0.3334 P   0  0  2  0  0  5  0  0  0  0  0  0
    4.3989   -4.0043   -0.5315 O   0  0  0  0  0  0  0  0  0  0  0  0
    5.5024   -1.6716   -0.1238 O   0  0  0  0  0  0  0  0  0  0  0  0
    3.2557   -1.9640   -1.7022 O   0  0  0  0  0  0  0  0  0  0  0  0
    4.4578   -7.1879   -0.9800 P   0  0  2  0  0  5  0  0  0  0  0  0
    5.5450   -7.5782   -0.0035 O   0  0  0  0  0  0  0  0  0  0  0  0
    4.8732   -5.7339   -1.7407 O   0  0  0  0  0  0  0  0  0  0  0  0
    4.2984   -8.3988   -2.1506 O   0  0  0  0  0  0  0  0  0  0  0  0
    3.1985   -7.4822    3.1128 P   0  0  1  0  0  5  0  0  0  0  0  0
    2.0527   -7.8236    1.9159 O   0  0  0  0  0  0  0  0  0  0  0  0
    3.3348   -8.8138    4.1493 O   0  0  0  0  0  0  0  0  0  0  0  0
    2.7484   -6.2728    3.9011 O   0  0  0  0  0  0  0  0  0  0  0  0
    5.6165   -4.7383   -0.4351 P   0  0  1  0  0  5  0  0  0  0  0  0
    6.7507   -4.0422   -1.4807 O   0  0  0  0  0  0  0  0  0  0  0  0
    5.9177   -6.2117   -0.2778 O   0  0  0  0  0  0  0  0  0  0  0  0
    4.0708   -4.5587   -1.0995 O   0  0  0  0  0  0  0  0  0  0  0  0
    1.7815   -3.6648    2.1171 H   0  0  0  0  0  0  0  0  0  0  0  0
    1.6259   -4.7736    0.1044 H   0  0  0  0  0  0  0  0  0  0  0  0
    2.9642   -3.7078   -1.2107 H   0  0  0  0  0  0  0  0  0  0  0  0
    2.4451   -6.3363    1.7949 H   0  0  0  0  0  0  0  0  0  0  0  0
    5.2120   -6.2696    0.5113 H   0  0  0  0  0  0  0  0  0  0  0  0
    5.7121   -5.0403    2.9188 H   0  0  0  0  0  0  0  0  0  0  0  0
    4.1902   -3.0562    3.1204 H   0  0  0  0  0  0  0  0  0  0  0  0
    3.8350   -4.7402    4.4728 H   0  0  0  0  0  0  0  0  0  0  0  0
    5.8349   -1.9446    0.7683 H   0  0  0  0  0  0  0  0  0  0  0  0
    2.4843   -2.5743   -1.8177 H   0  0  0  0  0  0  0  0  0  0  0  0
    5.6942   -5.9424   -2.2537 H   0  0  0  0  0  0  0  0  0  0  0  0
    3.9656   -9.1881   -1.6533 H   0  0  0  0  0  0  0  0  0  0  0  0
    1.2369   -8.0831    2.4139 H   0  0  0  0  0  0  0  0  0  0  0  0
    3.6508   -9.5519    3.5697 H   0  0  0  0  0  0  0  0  0  0  0  0
    6.3760   -3.1524   -1.7015 H   0  0  0  0  0  0  0  0  0  0  0  0
    3.4549   -4.8899   -0.3980 H   0  0  0  0  0  0  0  0  0  0  0  0
  1  2  1  0
  1  3  1  0
  3  4  1  0
  3  5  1  0
  5  6  1  0
  5  7  1  0
  7  8  1  0
  7  9  1  0
  9 10  1  0
  1 11  1  0
  9 11  1  0
 11 12  1  0
 13  2  1  6
 13 14  2  0
 13 15  1  0
 13 16  1  0
 17  6  1  6
 17 18  2  0
 17 19  1  0
 17 20  1  0
 21  8  1  1
 21 22  1  0
 21 23  1  0
 21 24  2  0
 25 10  1  6
 25 26  1  0
 25 27  2  0
 25 28  1  0
  1 29  1  6
  3 30  1  1
  4 31  1  0
  5 32  1  6
  7 33  1  1
  9 34  1  6
 11 35  1  6
 12 36  1  0
 15 37  1  0
 16 38  1  0
 19 39  1  0
 20 40  1  0
 22 41  1  0
 23 42  1  0
 26 43  1  0
 28 44  1  0
M  END
