
     RDKit          3D

 31 33  0  0  0  0  0  0  0  0999 V2000
  -20.5906    0.9994   -5.8531 N   0  0  0  0  0  0  0  0  0  0  0  0
  -20.7934   -0.2915   -5.4538 C   0  0  0  0  0  0  0  0  0  0  0  0
  -21.8393   -0.8776   -5.7248 O   0  0  0  0  0  0  0  0  0  0  0  0
  -19.8057   -0.9458   -4.7839 N   0  0  0  0  0  0  0  0  0  0  0  0
  -18.5042   -0.7809   -5.1510 C   0  0  0  0  0  0  0  0  0  0  0  0
  -17.6661   -1.6632   -5.0715 O   0  0  0  0  0  0  0  0  0  0  0  0
  -18.2147    0.5758   -5.7390 C   0  0  0  0  0  0  0  0  0  0  0  0
  -16.9886    0.9433   -5.9493 N   0  0  0  0  0  0  0  0  0  0  0  0
  -16.7591    2.2247   -6.4843 C   0  0  0  0  0  0  0  0  0  0  0  0
  -15.4250    2.5718   -6.7297 C   0  0  0  0  0  0  0  0  0  0  0  0
  -15.0751    3.8211   -7.2561 C   0  0  0  0  0  0  0  0  0  0  0  0
  -13.6254    4.1395   -7.4967 C   0  0  0  0  0  0  0  0  0  0  0  0
  -16.0918    4.7501   -7.5254 C   0  0  0  0  0  0  0  0  0  0  0  0
  -15.7803    6.1102   -8.0903 C   0  0  0  0  0  0  0  0  0  0  0  0
  -17.4342    4.3963   -7.2849 C   0  0  0  0  0  0  0  0  0  0  0  0
  -17.7992    3.1405   -6.7663 C   0  0  0  0  0  0  0  0  0  0  0  0
  -19.1378    2.7553   -6.5176 N   0  0  0  0  0  0  0  0  0  0  0  0
  -19.3926    1.4727   -6.0420 C   0  0  0  0  0  0  0  0  0  0  0  0
  -20.2395    3.6799   -6.8295 C   0  0  0  0  0  0  0  0  0  0  0  0
  -20.8096    3.5342   -8.2640 C   0  0  2  0  0  0  0  0  0  0  0  0
  -19.6834    3.4326   -9.1522 O   0  0  0  0  0  0  0  0  0  0  0  0
  -21.7220    4.7215   -8.6553 C   0  0  2  0  0  0  0  0  0  0  0  0
  -21.0826    5.9618   -8.3683 O   0  0  0  0  0  0  0  0  0  0  0  0
  -23.0843    4.7198   -7.9356 C   0  0  2  0  0  0  0  0  0  0  0  0
  -23.8563    3.5907   -8.3735 O   0  0  0  0  0  0  0  0  0  0  0  0
  -23.8756    6.0190   -8.1748 C   0  0  0  0  0  0  0  0  0  0  0  0
  -24.2396    6.1329   -9.5498 O   0  0  0  0  0  0  0  0  0  0  0  0
  -25.8052    6.1684   -9.9057 P   0  0  0  0  0  5  0  0  0  0  0  0
  -26.1723    6.2995  -11.3406 O   0  0  0  0  0  0  0  0  0  0  0  0
  -26.3982    4.8648   -9.2045 O   0  0  0  0  0  0  0  0  0  0  0  0
  -26.3710    7.3018   -8.9386 O   0  0  0  0  0  0  0  0  0  0  0  0
  1  2  4  0
  2  3  2  0
  2  4  4  0
  4  5  4  0
  5  6  2  0
  5  7  4  0
  7  8  4  0
  8  9  4  0
  9 10  4  0
 10 11  4  0
 11 12  1  0
 11 13  4  0
 13 14  1  0
 13 15  4  0
  9 16  4  0
 15 16  4  0
 16 17  4  0
  1 18  4  0
  7 18  1  0
 17 18  4  0
 17 19  1  0
 19 20  1  0
 20 21  1  6
 20 22  1  0
 22 23  1  1
 22 24  1  0
 24 25  1  6
 24 26  1  0
 26 27  1  0
 27 28  1  0
 28 29  2  0
 28 30  1  0
 28 31  1  0
M  END
