7P4J_5JK_A_904
     RDKit          3D

 75 78  0  0  0  0  0  0  0  0999 V2000
   11.5667   27.6041   -2.0306 C   0  0  2  0  0  0  0  0  0  0  0  0
   10.0173   27.4639   -1.8820 C   0  0  2  0  0  0  0  0  0  0  0  0
    9.5422   28.0729   -0.5393 C   0  0  2  0  0  0  0  0  0  0  0  0
   10.0894   27.2786    0.6700 C   0  0  1  0  0  0  0  0  0  0  0  0
    9.7690   25.7462    0.6154 C   0  0  2  0  0  0  0  0  0  0  0  0
   10.4008   24.9104    1.7987 C   0  0  1  0  0  0  0  0  0  0  0  0
   11.9302   25.1445    1.9080 C   0  0  1  0  0  0  0  0  0  0  0  0
    9.7506   25.2989    3.1763 C   0  0  1  0  0  0  0  0  0  0  0  0
    8.4989   24.4636    3.4951 C   0  0  2  0  0  0  0  0  0  0  0  0
    8.8283   22.9529    3.6308 C   0  0  2  0  0  0  0  0  0  0  0  0
    9.0510   22.6262    4.9782 O   0  0  0  0  0  0  0  0  0  0  0  0
   10.0634   22.5311    2.8059 C   0  0  1  0  0  0  0  0  0  0  0  0
   10.1855   23.4036    1.5764 C   0  0  0  0  0  0  0  0  0  0  0  0
    9.9881   22.8540    0.3608 C   0  0  0  0  0  0  0  0  0  0  0  0
    9.6809   23.6583   -0.8754 C   0  0  1  0  0  0  0  0  0  0  0  0
    8.3090   23.5541   -1.1747 O   0  0  0  0  0  0  0  0  0  0  0  0
   10.1449   25.1322   -0.7727 C   0  0  1  0  0  0  0  0  0  0  0  0
    9.5317   26.0043   -1.8937 C   0  0  2  0  0  0  0  0  0  0  0  0
    9.6925   25.5488   -3.3343 C   0  0  1  0  0  0  0  0  0  0  0  0
    9.4055   26.8125   -4.1570 C   0  0  1  0  0  0  0  0  0  0  0  0
    9.2961   27.9973   -3.1584 C   0  0  2  0  0  0  0  0  0  0  0  0
    9.7872   29.3498   -3.7825 C   0  0  2  0  0  0  0  0  0  0  0  0
    9.2338   30.5774   -3.0355 C   0  0  1  0  0  0  0  0  0  0  0  0
    9.4727   29.4623   -5.3021 C   0  0  2  0  0  0  0  0  0  0  0  0
   10.6806   29.2200   -6.2260 C   0  0  2  0  0  0  0  0  0  0  0  0
   10.3017   28.2772   -7.3819 C   0  0  2  0  0  0  0  0  0  0  0  0
   11.2058   28.3962   -8.6316 C   0  0  2  0  0  0  0  0  0  0  0  0
   10.5044   27.9248   -9.9126 C   0  0  1  0  0  0  0  0  0  0  0  0
   12.5538   27.6840   -8.4511 C   0  0  2  0  0  0  0  0  0  0  0  0
   12.0885   27.7380   -1.0661 H   0  0  0  0  0  0  0  0  0  0  0  0
   11.8186   28.4946   -2.6402 H   0  0  0  0  0  0  0  0  0  0  0  0
   12.0137   26.7181   -2.5254 H   0  0  0  0  0  0  0  0  0  0  0  0
    8.4307   28.0820   -0.4910 H   0  0  0  0  0  0  0  0  0  0  0  0
    9.8801   29.1220   -0.4384 H   0  0  0  0  0  0  0  0  0  0  0  0
   11.1794   27.4543    0.7377 H   0  0  0  0  0  0  0  0  0  0  0  0
    9.6416   27.7343    1.5745 H   0  0  0  0  0  0  0  0  0  0  0  0
    8.6645   25.6728    0.7188 H   0  0  0  0  0  0  0  0  0  0  0  0
   12.1777   26.2239    1.8447 H   0  0  0  0  0  0  0  0  0  0  0  0
   12.3131   24.7932    2.8898 H   0  0  0  0  0  0  0  0  0  0  0  0
   12.4942   24.5990    1.1271 H   0  0  0  0  0  0  0  0  0  0  0  0
   10.4725   25.1348    4.0085 H   0  0  0  0  0  0  0  0  0  0  0  0
    9.4835   26.3703    3.2281 H   0  0  0  0  0  0  0  0  0  0  0  0
    7.7542   24.6061    2.6818 H   0  0  0  0  0  0  0  0  0  0  0  0
    8.0314   24.8404    4.4308 H   0  0  0  0  0  0  0  0  0  0  0  0
    7.9532   22.3743    3.2503 H   0  0  0  0  0  0  0  0  0  0  0  0
    9.1689   23.4833    5.4664 H   0  0  0  0  0  0  0  0  0  0  0  0
   10.9845   22.6519    3.4162 H   0  0  0  0  0  0  0  0  0  0  0  0
    9.9884   21.4503    2.5520 H   0  0  0  0  0  0  0  0  0  0  0  0
    9.8355   21.7813    0.2816 H   0  0  0  0  0  0  0  0  0  0  0  0
   10.2379   23.1869   -1.7139 H   0  0  0  0  0  0  0  0  0  0  0  0
    7.9738   22.7052   -0.7847 H   0  0  0  0  0  0  0  0  0  0  0  0
   11.2440   25.1176   -0.8964 H   0  0  0  0  0  0  0  0  0  0  0  0
    8.4282   26.0127   -1.7098 H   0  0  0  0  0  0  0  0  0  0  0  0
   10.7284   25.1877   -3.5163 H   0  0  0  0  0  0  0  0  0  0  0  0
    8.9745   24.7381   -3.5849 H   0  0  0  0  0  0  0  0  0  0  0  0
   10.2381   26.9652   -4.8783 H   0  0  0  0  0  0  0  0  0  0  0  0
    8.4572   26.6981   -4.7263 H   0  0  0  0  0  0  0  0  0  0  0  0
    8.2201   28.1184   -2.8993 H   0  0  0  0  0  0  0  0  0  0  0  0
   10.8951   29.3946   -3.7080 H   0  0  0  0  0  0  0  0  0  0  0  0
    9.3888   31.5056   -3.6262 H   0  0  0  0  0  0  0  0  0  0  0  0
    8.1472   30.4655   -2.8333 H   0  0  0  0  0  0  0  0  0  0  0  0
    9.7720   30.7276   -2.0799 H   0  0  0  0  0  0  0  0  0  0  0  0
    9.0453   30.4632   -5.5226 H   0  0  0  0  0  0  0  0  0  0  0  0
    8.6731   28.7311   -5.5538 H   0  0  0  0  0  0  0  0  0  0  0  0
   11.5077   28.7698   -5.6410 H   0  0  0  0  0  0  0  0  0  0  0  0
   11.0201   30.1869   -6.6440 H   0  0  0  0  0  0  0  0  0  0  0  0
    9.2508   28.4783   -7.6855 H   0  0  0  0  0  0  0  0  0  0  0  0
   10.3377   27.2269   -7.0168 H   0  0  0  0  0  0  0  0  0  0  0  0
   11.4265   29.4790   -8.7609 H   0  0  0  0  0  0  0  0  0  0  0  0
    9.9245   27.0000   -9.7064 H   0  0  0  0  0  0  0  0  0  0  0  0
    9.8025   28.6968  -10.2924 H   0  0  0  0  0  0  0  0  0  0  0  0
   11.2535   27.6955  -10.7007 H   0  0  0  0  0  0  0  0  0  0  0  0
   12.9286   27.7878   -7.4117 H   0  0  0  0  0  0  0  0  0  0  0  0
   13.3077   28.0995   -9.1532 H   0  0  0  0  0  0  0  0  0  0  0  0
   12.4393   26.6012   -8.6708 H   0  0  0  0  0  0  0  0  0  0  0  0
  2  1  1  0
  2  3  1  0
  3  4  1  0
  5  4  1  0
  5  6  1  0
  6  7  1  0
  6  8  1  0
  8  9  1  0
  9 10  1  0
 10 11  1  0
 10 12  1  0
 12 13  1  0
  6 13  1  6
 13 14  2  0
 14 15  1  0
 15 16  1  0
 17 15  1  0
  5 17  1  0
 17 18  1  0
  2 18  1  0
 18 19  1  0
 19 20  1  0
 21 20  1  0
  2 21  1  6
 21 22  1  0
 22 23  1  0
 22 24  1  0
 24 25  1  0
 25 26  1  0
 26 27  1  0
 27 28  1  0
 27 29  1  0
  1 30  1  1
  1 31  1  0
  1 32  1  0
  3 33  1  6
  3 34  1  0
  4 35  1  1
  4 36  1  0
  5 37  1  1
  7 38  1  6
  7 39  1  0
  7 40  1  0
  8 41  1  1
  8 42  1  0
  9 43  1  6
  9 44  1  0
 10 45  1  6
 11 46  1  0
 12 47  1  1
 12 48  1  0
 14 49  1  0
 15 50  1  6
 16 51  1  0
 17 52  1  6
 18 53  1  1
 19 54  1  1
 19 55  1  0
 20 56  1  6
 20 57  1  0
 21 58  1  1
 22 59  1  6
 23 60  1  6
 23 61  1  0
 23 62  1  0
 24 63  1  1
 24 64  1  0
 25 65  1  1
 25 66  1  0
 26 67  1  6
 26 68  1  0
 27 69  1  6
 28 70  1  1
 28 71  1  0
 28 72  1  0
 29 73  1  1
 29 74  1  0
 29 75  1  0
M  END
