8G0V_YHT_C_701
     RDKit          3D

 42 44  0  0  0  0  0  0  0  0999 V2000
   -1.9629    5.0966   -3.3155 C   0  0  1  0  0  0  0  0  0  0  0  0
   -0.4864    4.9955   -2.9830 C   0  0  2  0  0  0  0  0  0  0  0  0
    0.1293    4.3890   -4.2551 C   0  0  2  0  0  0  0  0  0  0  0  0
    0.9964    6.6835   -4.8731 C   0  0  0  0  0  0  0  0  0  0  0  0
    2.6804    6.2279   -6.0702 C   0  0  0  0  0  0  0  0  0  0  0  0
    2.1328    5.0671   -5.6448 C   0  0  0  0  0  0  0  0  0  0  0  0
   -0.6095    6.4975   -7.6823 C   0  0  0  0  0  0  0  0  0  0  0  0
    0.2419    6.9536   -8.4037 C   0  0  0  0  0  0  0  0  0  0  0  0
   -3.2796    4.4265   -5.3837 C   0  0  0  0  0  0  0  0  0  0  0  0
   -1.6424    5.9441   -6.8061 C   0  0  0  0  0  0  0  0  0  0  0  0
    3.7217    3.8216   -6.8124 C   0  0  0  0  0  0  0  0  0  0  0  0
    3.7969    6.2064   -6.8989 C   0  0  0  0  0  0  0  0  0  0  0  0
   -2.1111    4.0926   -4.4496 C   0  0  1  0  0  0  0  0  0  0  0  0
    1.0678    5.3277   -4.8751 N   0  0  0  0  0  4  0  0  0  0  0  0
    1.9832    7.2785   -5.5997 N   0  0  0  0  0  0  0  0  0  0  0  0
    2.6227    3.8561   -6.0003 N   0  0  0  0  0  0  0  0  0  0  0  0
    4.2983    4.9858   -7.2534 N   0  0  0  0  0  0  0  0  0  0  0  0
    4.4054    7.4072   -7.3739 N   0  0  0  0  0  0  0  0  0  0  0  0
   -2.7875    4.7553   -2.2315 O   0  0  0  0  0  0  0  0  0  0  0  0
   -0.9006    4.0718   -5.1687 O   0  0  0  0  0  0  0  0  0  0  0  0
   -0.2422    4.1820   -1.8582 O   0  0  0  0  0  0  0  0  0  0  0  0
   -4.0179    5.5075   -4.8618 O   0  0  0  0  0  0  0  0  0  0  0  0
   -5.3531    7.3959   -6.3950 O   0  0  0  0  0  0  0  0  0  0  0  0
   -2.9003    6.3769   -7.2601 O   0  0  0  0  0  0  0  0  0  0  0  0
   -3.1153    7.9423   -5.1544 O   0  0  0  0  0  0  0  0  0  0  0  0
   -3.8297    6.8400   -5.9055 P   0  0  2  0  0  5  0  0  0  0  0  0
   -2.1946    6.1289   -3.6716 H   0  0  0  0  0  0  0  0  0  0  0  0
   -0.0804    6.0105   -2.7736 H   0  0  0  0  0  0  0  0  0  0  0  0
    0.6731    3.4478   -4.0118 H   0  0  0  0  0  0  0  0  0  0  0  0
    0.2268    7.2405   -4.3549 H   0  0  0  0  0  0  0  0  0  0  0  0
    0.9891    7.3541   -9.0369 H   0  0  0  0  0  0  0  0  0  0  0  0
   -3.9150    3.5174   -5.4887 H   0  0  0  0  0  0  0  0  0  0  0  0
   -2.8544    4.6908   -6.3778 H   0  0  0  0  0  0  0  0  0  0  0  0
   -1.5607    4.8349   -6.8430 H   0  0  0  0  0  0  0  0  0  0  0  0
   -1.4437    6.3103   -5.7745 H   0  0  0  0  0  0  0  0  0  0  0  0
    4.1382    2.8698   -7.1104 H   0  0  0  0  0  0  0  0  0  0  0  0
   -2.2848    3.0753   -4.0269 H   0  0  0  0  0  0  0  0  0  0  0  0
    5.2420    7.3608   -7.9968 H   0  0  0  0  0  0  0  0  0  0  0  0
    4.0279    8.3429   -7.1065 H   0  0  0  0  0  0  0  0  0  0  0  0
   -2.7515    5.5217   -1.6017 H   0  0  0  0  0  0  0  0  0  0  0  0
   -0.6174    3.2800   -2.0406 H   0  0  0  0  0  0  0  0  0  0  0  0
   -5.8484    7.5507   -5.5511 H   0  0  0  0  0  0  0  0  0  0  0  0
  1  2  1  0
  2  3  1  0
  5  6  4  0
  7  8  3  0
  7 10  1  0
  5 12  4  0
 13  9  1  0
  1 13  1  0
  4 14  4  0
  6 14  4  0
  3 14  1  0
  4 15  4  0
  5 15  4  0
  6 16  4  0
 11 16  4  0
 12 17  4  0
 11 17  4  0
 12 18  1  0
  1 19  1  0
  3 20  1  0
 13 20  1  0
  2 21  1  0
  9 22  1  0
 10 24  1  0
 25 26  2  0
 26 24  1  6
 22 26  1  0
 26 23  1  0
  1 27  1  6
  2 28  1  1
  3 29  1  1
  4 30  1  0
  8 31  1  0
  9 32  1  0
  9 33  1  0
 10 34  1  0
 10 35  1  0
 11 36  1  0
 13 37  1  1
 18 38  1  0
 18 39  1  0
 19 40  1  0
 21 41  1  0
 23 42  1  0
M  CHG  1  14   1
M  END
