
     RDKit          3D

 20 22  0  0  0  0  0  0  0  0999 V2000
   86.9273  -17.3966    2.8903 C   0  0  0  0  0  0  0  0  0  0  0  0
   85.3187  -18.1814    3.1649 S   0  0  0  0  0  0  0  0  0  0  0  0
   84.3721  -16.7267    3.7452 C   0  0  0  0  0  0  0  0  0  0  0  0
   84.6018  -15.4292    2.9577 C   0  0  1  0  0  0  0  0  0  0  0  0
   83.3564  -14.7125    2.7853 O   0  0  0  0  0  0  0  0  0  0  0  0
   84.7454  -13.3577    4.1577 C   0  0  2  0  0  0  0  0  0  0  0  0
   85.4985  -12.1419    4.2166 O   0  0  0  0  0  0  0  0  0  0  0  0
   85.6108  -14.4609    3.5742 C   0  0  2  0  0  0  0  0  0  0  0  0
   86.4235  -13.8972    2.5290 O   0  0  0  0  0  0  0  0  0  0  0  0
   83.5768  -13.3343    3.1664 C   0  0  2  0  0  0  0  0  0  0  0  0
   82.3366  -12.7883    3.6880 N   0  0  0  0  0  0  0  0  0  0  0  0
   81.7910  -13.0530    4.9190 C   0  0  0  0  0  0  0  0  0  0  0  0
   80.6404  -12.4390    5.0965 N   0  0  0  0  0  0  0  0  0  0  0  0
   80.4055  -11.7849    3.9063 C   0  0  0  0  0  0  0  0  0  0  0  0
   79.3439  -10.9778    3.4644 C   0  0  0  0  0  0  0  0  0  0  0  0
   78.2344  -10.6855    4.2457 N   0  0  0  0  0  0  0  0  0  0  0  0
   79.4107  -10.4460    2.2233 N   0  0  0  0  0  0  0  0  0  0  0  0
   80.4809  -10.7407    1.4563 C   0  0  0  0  0  0  0  0  0  0  0  0
   81.5525  -11.5060    1.7638 N   0  0  0  0  0  0  0  0  0  0  0  0
   81.4469  -11.9920    3.0147 C   0  0  0  0  0  0  0  0  0  0  0  0
  1  2  1  0
  2  3  1  0
  4  3  1  1
  4  5  1  0
  6  7  1  6
  4  8  1  0
  6  8  1  0
  8  9  1  6
  5 10  1  0
  6 10  1  0
 10 11  1  1
 11 12  4  0
 12 13  4  0
 13 14  4  0
 14 15  4  0
 15 16  1  0
 15 17  4  0
 17 18  4  0
 18 19  4  0
 11 20  4  0
 14 20  4  0
 19 20  4  0
M  END
