7P85_5ZG_A_401
     RDKit          3D

 14 14  0  0  0  0  0  0  0  0999 V2000
   20.3933  -49.0478   -8.9141 C   0  0  0  0  0  0  0  0  0  0  0  0
   21.5281  -48.4656   -9.4859 C   0  0  0  0  0  0  0  0  0  0  0  0
   21.4231  -47.2173  -10.0452 C   0  0  0  0  0  0  0  0  0  0  0  0
   20.2310  -46.5180  -10.0606 C   0  0  0  0  0  0  0  0  0  0  0  0
   19.1370  -47.1141   -9.4929 C   0  0  0  0  0  0  0  0  0  0  0  0
   19.1851  -48.3810   -8.9100 C   0  0  0  0  0  0  0  0  0  0  0  0
   20.5644  -50.4081   -8.3196 C   0  0  0  0  0  0  0  0  0  0  0  0
   20.1285  -45.1634  -10.6704 C   0  0  0  0  0  0  0  0  0  0  0  0
   22.4249  -48.3005   -6.6069 C   0  0  0  0  0  0  0  0  0  0  0  0
   23.8120  -47.7249   -6.3747 C   0  0  0  0  0  0  0  0  0  0  0  0
   20.7765  -50.1753   -6.5371 P   0  0  2  0  0  0  0  0  0  0  0  0
   22.3652  -49.6434   -6.2503 O   0  0  0  0  0  0  0  0  0  0  0  0
   20.6031  -51.6610   -5.7434 O   0  0  0  0  0  0  0  0  0  0  0  0
   19.7509  -49.1729   -6.0728 O   0  0  0  0  0  0  0  0  0  0  0  0
  1  2  2  0
  2  3  1  0
  3  4  2  0
  4  5  1  0
  1  6  1  0
  5  6  2  0
  1  7  1  0
  4  8  1  0
  9 10  1  0
  7 11  1  0
 11 12  1  0
  9 12  1  0
 11 13  1  1
 11 14  2  0
M  END
$$$$
