7M41_YQG_B_201
     RDKit          3D

 48 52  0  0  0  0  0  0  0  0999 V2000
  -24.8404  -23.2462   16.4180 N   0  0  0  0  0  0  0  0  0  0  0  0
  -27.3346  -21.5358   14.4651 N   0  0  0  0  0  0  0  0  0  0  0  0
  -22.4903  -23.4837   15.9358 C   0  0  0  0  0  0  0  0  0  0  0  0
  -23.7634  -23.0018   15.6019 C   0  0  0  0  0  0  0  0  0  0  0  0
  -23.9288  -22.2556   14.4080 C   0  0  0  0  0  0  0  0  0  0  0  0
  -26.0818  -22.7780   16.0951 C   0  0  0  0  0  0  0  0  0  0  0  0
  -25.2164  -21.7997   14.1262 C   0  0  0  0  0  0  0  0  0  0  0  0
  -27.8821  -20.2435   12.3912 C   0  0  2  0  0  0  0  0  0  0  0  0
  -18.9684  -20.6908   11.7945 C   0  0  0  0  0  0  0  0  0  0  0  0
  -18.6583  -23.0812   11.5844 C   0  0  0  0  0  0  0  0  0  0  0  0
  -20.7525  -19.7037   13.2637 C   0  0  1  0  0  0  0  0  0  0  0  0
  -15.3269  -18.2146    7.9073 C   0  0  0  0  0  0  0  0  0  0  0  0
  -22.8342  -22.0049   13.5717 C   0  0  0  0  0  0  0  0  0  0  0  0
  -20.4207  -22.2161   13.0141 C   0  0  0  0  0  0  0  0  0  0  0  0
  -20.0316  -20.8960   12.6903 C   0  0  0  0  0  0  0  0  0  0  0  0
  -18.2788  -21.7799   11.2304 C   0  0  0  0  0  0  0  0  0  0  0  0
  -19.7206  -23.2979   12.4622 C   0  0  0  0  0  0  0  0  0  0  0  0
  -15.4790  -19.4041    9.6584 C   0  0  0  0  0  0  0  0  0  0  0  0
  -15.1944  -17.3947    9.0057 C   0  0  0  0  0  0  0  0  0  0  0  0
  -21.5623  -22.4893   13.9141 C   0  0  0  0  0  0  0  0  0  0  0  0
  -21.3937  -23.2325   15.1014 C   0  0  0  0  0  0  0  0  0  0  0  0
  -26.9399  -20.9332   13.3182 C   0  0  0  0  0  0  0  0  0  0  0  0
  -26.2300  -22.0644   14.9526 N   0  0  0  0  0  0  0  0  0  0  0  0
  -25.6145  -21.0834   13.0572 N   0  0  0  0  0  0  0  0  0  0  0  0
  -17.1908  -21.5950   10.3067 N   0  0  0  0  0  0  0  0  0  0  0  0
  -15.2915  -18.1504   10.1092 N   0  0  0  0  0  0  0  0  0  0  0  0
  -15.5093  -19.4872    8.3128 N   0  0  0  0  0  0  0  0  0  0  0  0
  -27.0688  -23.0059   16.8452 O   0  0  0  0  0  0  0  0  0  0  0  0
  -14.5565  -21.7384   10.5145 O   0  0  0  0  0  0  0  0  0  0  0  0
  -15.7465  -20.3581   12.1469 O   0  0  0  0  0  0  0  0  0  0  0  0
  -15.7064  -20.7911   10.7082 S   0  0  1  0  0  6  0  0  0  0  0  0
  -19.8128  -23.8353   15.5886 Cl  0  0  0  0  0  0  0  0  0  0  0  0
  -24.7175  -23.7971   17.2986 H   0  0  0  0  0  0  0  0  0  0  0  0
  -22.3484  -24.0517   16.8472 H   0  0  0  0  0  0  0  0  0  0  0  0
  -27.5920  -20.4431   11.3382 H   0  0  0  0  0  0  0  0  0  0  0  0
  -27.8564  -19.1481   12.5702 H   0  0  0  0  0  0  0  0  0  0  0  0
  -28.9119  -20.6191   12.5649 H   0  0  0  0  0  0  0  0  0  0  0  0
  -18.6791  -19.6784   11.5521 H   0  0  0  0  0  0  0  0  0  0  0  0
  -18.1374  -23.9335   11.1663 H   0  0  0  0  0  0  0  0  0  0  0  0
  -21.0392  -18.9827   12.4688 H   0  0  0  0  0  0  0  0  0  0  0  0
  -21.6737  -20.0403   13.7831 H   0  0  0  0  0  0  0  0  0  0  0  0
  -20.0998  -19.1662   13.9838 H   0  0  0  0  0  0  0  0  0  0  0  0
  -15.2966  -17.9031    6.8720 H   0  0  0  0  0  0  0  0  0  0  0  0
  -22.9660  -21.4396   12.6561 H   0  0  0  0  0  0  0  0  0  0  0  0
  -20.0061  -24.3143   12.7056 H   0  0  0  0  0  0  0  0  0  0  0  0
  -15.0427  -16.3233    9.0005 H   0  0  0  0  0  0  0  0  0  0  0  0
  -17.3203  -21.8750    9.3085 H   0  0  0  0  0  0  0  0  0  0  0  0
  -15.2418  -17.8287   11.1012 H   0  0  0  0  0  0  0  0  0  0  0  0
  1  4  1  0
  3  4  2  0
  4  5  1  0
  1  6  1  0
  5  7  1  0
  5 13  2  0
  9 15  2  0
 11 15  1  0
 14 15  1  0
  9 16  1  0
 10 16  2  0
 10 17  1  0
 14 17  2  0
 12 19  2  0
 13 20  1  0
 14 20  1  0
 20 21  2  0
  3 21  1  0
  8 22  1  0
  2 22  2  0
  2 23  1  0
  7 23  1  0
  6 23  1  0
 22 24  1  0
  7 24  2  0
 16 25  1  0
 19 26  1  0
 18 26  1  0
 12 27  1  0
 18 27  2  0
  6 28  2  0
 18 31  1  0
 30 31  2  0
 29 31  2  0
 31 25  1  6
 21 32  1  0
  1 33  1  0
  3 34  1  0
  8 35  1  6
  8 36  1  0
  8 37  1  0
  9 38  1  0
 10 39  1  0
 11 40  1  6
 11 41  1  0
 11 42  1  0
 12 43  1  0
 13 44  1  0
 17 45  1  0
 19 46  1  0
 25 47  1  0
 26 48  1  0
M  END
