7L00_XCJ_A_402
     RDKit          3D

 27 30  0  0  0  0  0  0  0  0999 V2000
  -19.8106    5.0039   23.1168 C   0  0  0  0  0  0  0  0  0  0  0  0
  -21.8652    6.9066   23.7411 C   0  0  0  0  0  0  0  0  0  0  0  0
  -21.0184    7.7542   23.0449 C   0  0  0  0  0  0  0  0  0  0  0  0
  -21.5284    8.9622   22.6116 C   0  0  0  0  0  0  0  0  0  0  0  0
  -22.8667    9.2582   22.8998 C   0  0  0  0  0  0  0  0  0  0  0  0
  -23.7212    8.3832   23.6032 C   0  0  0  0  0  0  0  0  0  0  0  0
  -23.2052    7.1819   24.0284 C   0  0  0  0  0  0  0  0  0  0  0  0
  -22.3167   11.1397   21.8193 C   0  0  0  0  0  0  0  0  0  0  0  0
  -21.5346   13.3599   21.1330 C   0  0  0  0  0  0  0  0  0  0  0  0
  -21.9728   14.7726   21.4351 C   0  0  0  0  0  0  0  0  0  0  0  0
  -21.0625   15.4053   22.4533 C   0  0  0  0  0  0  0  0  0  0  0  0
  -20.5945   16.7473   22.5212 C   0  0  0  0  0  0  0  0  0  0  0  0
  -19.7622   15.3580   24.3536 C   0  0  0  0  0  0  0  0  0  0  0  0
  -17.9898   14.0522   25.3770 C   0  0  0  0  0  0  0  0  0  0  0  0
  -17.6362   13.6847   26.6567 C   0  0  0  0  0  0  0  0  0  0  0  0
  -18.5612   14.2155   27.5132 C   0  0  0  0  0  0  0  0  0  0  0  0
  -19.4884   14.9105   26.7710 C   0  0  0  0  0  0  0  0  0  0  0  0
  -23.3465   10.5130   22.4359 N   0  0  0  0  0  0  0  0  0  0  0  0
  -22.5762   12.3808   21.2094 N   0  0  0  0  0  0  0  0  0  0  0  0
  -19.1095   14.7850   25.4893 N   0  0  0  0  0  0  0  0  0  0  0  0
  -20.5614   14.5980   23.5365 N   0  0  0  0  0  0  0  0  0  0  0  0
  -20.4170   13.0751   20.8594 O   0  0  0  0  0  0  0  0  0  0  0  0
  -20.6754    5.4314   25.6501 O   0  0  0  0  0  0  0  0  0  0  0  0
  -22.1646    4.2943   24.2675 O   0  0  0  0  0  0  0  0  0  0  0  0
  -21.1615    5.3536   24.2563 S   0  0  2  0  0  0  0  0  0  0  0  0
  -20.8811   10.2481   21.7840 S   0  0  0  0  0  0  0  0  0  0  0  0
  -19.6446   16.8987   23.8144 S   0  0  0  0  0  0  0  0  0  0  0  0
  2  3  2  0
  3  4  1  0
  4  5  2  0
  5  6  1  0
  2  7  1  0
  6  7  2  0
  9 10  1  0
 10 11  1  0
 11 12  2  0
 14 15  2  0
 15 16  1  0
 16 17  2  0
  8 18  2  0
  5 18  1  0
  9 19  1  0
  8 19  1  0
 14 20  1  0
 17 20  1  0
 13 20  1  0
 13 21  2  0
 11 21  1  0
  9 22  2  0
 25  1  1  6
  2 25  1  0
 23 25  2  0
 24 25  2  0
  8 26  1  0
  4 26  1  0
 13 27  1  0
 12 27  1  0
M  END
