
     RDKit          3D

 15 14  0  0  0  0  0  0  0  0999 V2000
   16.4913   -0.4094   55.9711 N   0  0  0  0  0  0  0  0  0  0  0  0
   16.9831   -0.0720   57.3414 C   0  0  2  0  0  0  0  0  0  0  0  0
   18.3692   -0.6960   57.5808 C   0  0  0  0  0  0  0  0  0  0  0  0
   19.4326   -0.3287   57.1138 O   0  0  0  0  0  0  0  0  0  0  0  0
   15.9699   -0.4816   58.4223 C   0  0  0  0  0  0  0  0  0  0  0  0
   15.2537    0.6898   59.1067 C   0  0  0  0  0  0  0  0  0  0  0  0
   14.8872    0.4013   60.5612 C   0  0  0  0  0  0  0  0  0  0  0  0
   13.5524    0.9158   60.9002 N   0  0  0  0  0  0  0  0  0  0  0  0
   12.3894    0.3499   60.5013 C   0  0  0  0  0  0  0  0  0  0  0  0
   12.1728    0.1996   59.1745 N   0  0  0  0  0  0  0  0  0  0  0  0
   11.4777   -0.0586   61.3928 N   0  0  0  0  0  4  0  0  0  0  0  0
   12.0609    1.2924   58.1951 C   0  0  0  0  0  0  0  0  0  0  0  0
   11.8235    2.6369   58.8703 C   0  0  0  0  0  0  0  0  0  0  0  0
   12.9010    3.6429   58.5031 C   0  0  0  0  0  0  0  0  0  0  0  0
   18.3112   -1.7831   58.3858 O   0  0  0  0  0  0  0  0  0  0  0  0
  2  1  1  6
  2  3  1  0
  3  4  2  0
  2  5  1  0
  5  6  1  0
  6  7  1  0
  7  8  1  0
  8  9  1  0
  9 10  1  0
  9 11  2  0
 10 12  1  0
 12 13  1  0
 13 14  1  0
  3 15  1  0
M  CHG  1  11   1
M  END
