7E2S_BLA_A_301
     RDKit          3D

 77 80  0  0  0  0  0  0  0  0999 V2000
   -4.7310  -22.8722  -20.6510 C   0  0  0  0  0  0  0  0  0  0  0  0
   -3.5773  -20.9533  -21.7736 N   0  0  0  0  0  0  0  0  0  0  0  0
   -4.6629  -21.7344  -21.5928 C   0  0  0  0  0  0  0  0  0  0  0  0
   -5.7020  -21.2963  -22.4025 C   0  0  0  0  0  0  0  0  0  0  0  0
   -5.2208  -20.1951  -23.0976 C   0  0  0  0  0  0  0  0  0  0  0  0
   -3.9172  -19.9984  -22.6578 C   0  0  0  0  0  0  0  0  0  0  0  0
   -5.9720  -19.3837  -24.1111 C   0  0  2  0  0  0  0  0  0  0  0  0
   -7.0644  -21.9211  -22.5361 C   0  0  1  0  0  0  0  0  0  0  0  0
   -7.0733  -22.9522  -23.6678 C   0  0  1  0  0  0  0  0  0  0  0  0
   -6.8841  -24.3346  -23.1267 C   0  0  0  0  0  0  0  0  0  0  0  0
   -6.1688  -25.1659  -23.7506 O   0  0  0  0  0  0  0  0  0  0  0  0
   -7.4994  -24.7013  -21.9322 O   0  0  0  0  0  0  0  0  0  0  0  0
   -2.9823  -18.9406  -23.0760 C   0  0  0  0  0  0  0  0  0  0  0  0
   -1.7072  -20.4135  -24.5542 N   0  0  0  0  0  0  0  0  0  0  0  0
   -1.9647  -19.1642  -23.9190 C   0  0  0  0  0  0  0  0  0  0  0  0
   -1.0302  -18.1467  -24.4376 C   0  0  0  0  0  0  0  0  0  0  0  0
   -0.2533  -18.7208  -25.3675 C   0  0  0  0  0  0  0  0  0  0  0  0
   -0.6576  -20.1287  -25.4625 C   0  0  0  0  0  0  0  0  0  0  0  0
   -1.0238  -16.6918  -24.0654 C   0  0  2  0  0  0  0  0  0  0  0  0
   -0.2050  -20.9759  -26.2772 O   0  0  0  0  0  0  0  0  0  0  0  0
    0.7519  -18.0183  -26.1977 C   0  0  0  0  0  0  0  0  0  0  0  0
    0.4464  -17.0153  -27.0184 C   0  0  0  0  0  0  0  0  0  0  0  0
   -0.3115  -20.7025  -20.0030 N   0  0  0  0  0  0  0  0  0  0  0  0
    0.8371  -19.9714  -20.3945 C   0  0  0  0  0  0  0  0  0  0  0  0
    1.9245  -20.1711  -19.4450 C   0  0  0  0  0  0  0  0  0  0  0  0
    1.4817  -20.9795  -18.4776 C   0  0  0  0  0  0  0  0  0  0  0  0
    0.0912  -21.3759  -18.8075 C   0  0  0  0  0  0  0  0  0  0  0  0
    3.2883  -19.5570  -19.5311 C   0  0  2  0  0  0  0  0  0  0  0  0
    0.8838  -19.2405  -21.4199 O   0  0  0  0  0  0  0  0  0  0  0  0
    2.2898  -21.3973  -17.3122 C   0  0  0  0  0  0  0  0  0  0  0  0
    2.9270  -22.5649  -17.2702 C   0  0  0  0  0  0  0  0  0  0  0  0
   -0.6281  -22.3165  -18.1639 C   0  0  0  0  0  0  0  0  0  0  0  0
   -2.6121  -22.3139  -19.5846 N   0  0  0  0  0  0  0  0  0  0  0  0
   -1.9545  -22.8114  -18.5912 C   0  0  0  0  0  0  0  0  0  0  0  0
   -2.6450  -23.9826  -18.0258 C   0  0  0  0  0  0  0  0  0  0  0  0
   -3.7681  -24.1640  -18.7264 C   0  0  0  0  0  0  0  0  0  0  0  0
   -3.7774  -23.1105  -19.7418 C   0  0  0  0  0  0  0  0  0  0  0  0
   -2.0977  -24.8870  -16.9593 C   0  0  1  0  0  0  0  0  0  0  0  0
   -4.7406  -25.3080  -18.6024 C   0  0  2  0  0  0  0  0  0  0  0  0
   -4.2686  -26.5105  -19.4214 C   0  0  2  0  0  0  0  0  0  0  0  0
   -5.4243  -27.3973  -19.7597 C   0  0  0  0  0  0  0  0  0  0  0  0
   -5.6029  -28.4741  -19.1266 O   0  0  0  0  0  0  0  0  0  0  0  0
   -6.2830  -27.0484  -20.7972 O   0  0  0  0  0  0  0  0  0  0  0  0
   -5.6241  -23.4816  -20.6579 H   0  0  0  0  0  0  0  0  0  0  0  0
   -2.6379  -21.0606  -21.3298 H   0  0  0  0  0  0  0  0  0  0  0  0
   -6.4658  -18.5229  -23.6157 H   0  0  0  0  0  0  0  0  0  0  0  0
   -6.7556  -19.9956  -24.6040 H   0  0  0  0  0  0  0  0  0  0  0  0
   -5.2670  -19.0029  -24.8793 H   0  0  0  0  0  0  0  0  0  0  0  0
   -7.3440  -22.4083  -21.5766 H   0  0  0  0  0  0  0  0  0  0  0  0
   -7.8173  -21.1278  -22.7389 H   0  0  0  0  0  0  0  0  0  0  0  0
   -8.0397  -22.9066  -24.2164 H   0  0  0  0  0  0  0  0  0  0  0  0
   -6.2558  -22.7274  -24.3879 H   0  0  0  0  0  0  0  0  0  0  0  0
   -8.3770  -25.2070  -21.9334 H   0  0  0  0  0  0  0  0  0  0  0  0
   -3.2061  -17.9299  -22.7611 H   0  0  0  0  0  0  0  0  0  0  0  0
   -2.2862  -21.2823  -24.5306 H   0  0  0  0  0  0  0  0  0  0  0  0
   -1.4225  -16.0723  -24.8941 H   0  0  0  0  0  0  0  0  0  0  0  0
    0.0105  -16.3450  -23.8622 H   0  0  0  0  0  0  0  0  0  0  0  0
   -1.6447  -16.5391  -23.1600 H   0  0  0  0  0  0  0  0  0  0  0  0
    1.7848  -18.3399  -26.1563 H   0  0  0  0  0  0  0  0  0  0  0  0
   -0.5671  -16.6657  -27.1479 H   0  0  0  0  0  0  0  0  0  0  0  0
    1.2253  -16.5446  -27.6037 H   0  0  0  0  0  0  0  0  0  0  0  0
   -1.2577  -20.6184  -20.4328 H   0  0  0  0  0  0  0  0  0  0  0  0
    3.2104  -18.5122  -19.8981 H   0  0  0  0  0  0  0  0  0  0  0  0
    3.9320  -20.1319  -20.2296 H   0  0  0  0  0  0  0  0  0  0  0  0
    3.7619  -19.5627  -18.5276 H   0  0  0  0  0  0  0  0  0  0  0  0
    2.3084  -20.7641  -16.4367 H   0  0  0  0  0  0  0  0  0  0  0  0
    2.8671  -23.2703  -18.0876 H   0  0  0  0  0  0  0  0  0  0  0  0
    3.4857  -22.8426  -16.3864 H   0  0  0  0  0  0  0  0  0  0  0  0
   -0.1981  -22.7921  -17.2956 H   0  0  0  0  0  0  0  0  0  0  0  0
   -1.0476  -24.6124  -16.7316 H   0  0  0  0  0  0  0  0  0  0  0  0
   -2.6735  -24.7983  -16.0161 H   0  0  0  0  0  0  0  0  0  0  0  0
   -2.1349  -25.9391  -17.3103 H   0  0  0  0  0  0  0  0  0  0  0  0
   -5.7439  -24.9863  -18.9519 H   0  0  0  0  0  0  0  0  0  0  0  0
   -4.8589  -25.5961  -17.5371 H   0  0  0  0  0  0  0  0  0  0  0  0
   -3.5258  -27.0962  -18.8388 H   0  0  0  0  0  0  0  0  0  0  0  0
   -3.7770  -26.1604  -20.3557 H   0  0  0  0  0  0  0  0  0  0  0  0
   -5.9693  -27.0704  -21.7597 H   0  0  0  0  0  0  0  0  0  0  0  0
  1  3  1  0
  2  3  1  0
  3  4  2  0
  4  5  1  0
  2  6  1  0
  5  6  2  0
  5  7  1  0
  4  8  1  0
  8  9  1  0
  9 10  1  0
 10 11  2  0
 10 12  1  0
  6 13  1  0
 13 15  2  0
 14 15  1  0
 15 16  1  0
 16 17  2  0
 14 18  1  0
 17 18  1  0
 16 19  1  0
 18 20  2  0
 17 21  1  0
 21 22  2  0
 23 24  1  0
 24 25  1  0
 25 26  2  0
 23 27  1  0
 26 27  1  0
 25 28  1  0
 24 29  2  0
 26 30  1  0
 30 31  2  0
 27 32  2  0
 32 34  1  0
 33 34  2  0
 34 35  1  0
 35 36  2  0
  1 37  2  0
 33 37  1  0
 36 37  1  0
 35 38  1  0
 36 39  1  0
 39 40  1  0
 40 41  1  0
 41 42  2  0
 41 43  1  0
  1 44  1  0
  2 45  1  0
  7 46  1  1
  7 47  1  0
  7 48  1  0
  8 49  1  1
  8 50  1  0
  9 51  1  6
  9 52  1  0
 12 53  1  0
 13 54  1  0
 14 55  1  0
 19 56  1  6
 19 57  1  0
 19 58  1  0
 21 59  1  0
 22 60  1  0
 22 61  1  0
 23 62  1  0
 28 63  1  6
 28 64  1  0
 28 65  1  0
 30 66  1  0
 31 67  1  0
 31 68  1  0
 32 69  1  0
 38 70  1  1
 38 71  1  0
 38 72  1  0
 39 73  1  6
 39 74  1  0
 40 75  1  1
 40 76  1  0
 43 77  1  0
M  END
