6TW5_9M2_CCC_501
     RDKit          3D

 59 62  0  0  0  0  0  0  0  0999 V2000
    6.6164    3.1517    5.4460 C   0  0  0  0  0  0  0  0  0  0  0  0
    4.7425    4.2524    9.8624 C   0  0  0  0  0  0  0  0  0  0  0  0
    3.6304    4.2115   10.6996 C   0  0  0  0  0  0  0  0  0  0  0  0
    5.7759    3.6520    7.6723 C   0  0  0  0  0  0  0  0  0  0  0  0
    5.6167    3.0473    6.4146 C   0  0  0  0  0  0  0  0  0  0  0  0
    4.6422    3.6104    8.6099 C   0  0  0  0  0  0  0  0  0  0  0  0
    3.4534    2.9214    8.2561 C   0  0  0  0  0  0  0  0  0  0  0  0
    2.1105    4.4051   12.2853 N   0  0  0  0  0  4  0  0  0  0  0  0
    2.3559    2.8892    9.1366 C   0  0  0  0  0  0  0  0  0  0  0  0
    2.4822    3.5527   10.3535 C   0  0  0  0  0  0  0  0  0  0  0  0
    8.7467    3.9787    4.7736 F   0  0  0  0  0  0  0  0  0  0  0  0
    7.7817    3.8677    5.7196 C   0  0  0  0  0  0  0  0  0  0  0  0
    7.9584    4.4633    6.9704 C   0  0  0  0  0  0  0  0  0  0  0  0
    6.9803    4.3436    7.9663 C   0  0  0  0  0  0  0  0  0  0  0  0
    1.5586    3.6717   11.3243 N   0  0  0  0  0  0  0  0  0  0  0  0
    3.3706    4.7555   11.9384 C   0  0  0  0  0  0  0  0  0  0  0  0
    4.2754    5.6366   12.7641 C   0  0  0  0  0  0  0  0  0  0  0  0
    5.4096    6.2048   12.0012 N   0  0  0  0  0  0  0  0  0  0  0  0
    5.0308    7.4003   11.2317 C   0  0  0  0  0  0  0  0  0  0  0  0
    6.0632    5.2100   11.1366 C   0  0  0  0  0  0  0  0  0  0  0  0
    7.2670    4.9174    9.2155 O   0  0  0  0  0  0  0  0  0  0  0  0
    6.3720    4.9586   10.3260 C   0  0  0  0  0  0  0  0  0  0  0  0
    5.1526    4.0872   10.0368 C   0  0  0  0  0  0  0  0  0  0  0  0
    4.0575    4.3439   11.0367 C   0  0  0  0  0  0  0  0  0  0  0  0
    2.8760    3.6337   11.1945 C   0  0  0  0  0  0  0  0  0  0  0  0
    2.4710    2.4018   10.4520 C   0  0  0  0  0  0  0  0  0  0  0  0
    2.0887    4.2534   12.0957 N   0  0  0  0  0  0  0  0  0  0  0  0
    2.7322    5.3318   12.5155 N   0  0  0  0  0  4  0  0  0  0  0  0
    2.1733    6.2781   13.4744 C   0  0  0  0  0  0  0  0  0  0  0  0
    3.9321    5.4199   11.9017 C   0  0  0  0  0  0  0  0  0  0  0  0
    4.8776    6.5769   12.0333 C   0  0  0  0  0  0  0  0  0  0  0  0
    6.4795    2.6889    4.4770 H   0  0  0  0  0  0  0  0  0  0  0  0
    5.6432    4.7784   10.1519 H   0  0  0  0  0  0  0  0  0  0  0  0
    4.7039    2.5147    6.1751 H   0  0  0  0  0  0  0  0  0  0  0  0
    3.3788    2.4224    7.2978 H   0  0  0  0  0  0  0  0  0  0  0  0
    1.6210    4.6699   13.1686 H   0  0  0  0  0  0  0  0  0  0  0  0
    1.4417    2.3742    8.8711 H   0  0  0  0  0  0  0  0  0  0  0  0
    8.8749    5.0009    7.1791 H   0  0  0  0  0  0  0  0  0  0  0  0
    4.6620    5.0610   13.6325 H   0  0  0  0  0  0  0  0  0  0  0  0
    3.6715    6.4641   13.1953 H   0  0  0  0  0  0  0  0  0  0  0  0
    4.3784    7.1394   10.3699 H   0  0  0  0  0  0  0  0  0  0  0  0
    5.9435    7.9015   10.8448 H   0  0  0  0  0  0  0  0  0  0  0  0
    4.5032    8.1297   11.8831 H   0  0  0  0  0  0  0  0  0  0  0  0
    6.3591    4.3187   11.7296 H   0  0  0  0  0  0  0  0  0  0  0  0
    5.3987    4.8941   10.3030 H   0  0  0  0  0  0  0  0  0  0  0  0
    6.9922    5.6397   10.7045 H   0  0  0  0  0  0  0  0  0  0  0  0
    6.0384    6.0019   10.5173 H   0  0  0  0  0  0  0  0  0  0  0  0
    6.8782    4.5651   11.2307 H   0  0  0  0  0  0  0  0  0  0  0  0
    4.7878    4.2925    9.0079 H   0  0  0  0  0  0  0  0  0  0  0  0
    5.4465    3.0172   10.0745 H   0  0  0  0  0  0  0  0  0  0  0  0
    1.5028    2.0220   10.8406 H   0  0  0  0  0  0  0  0  0  0  0  0
    2.3584    2.6339    9.3729 H   0  0  0  0  0  0  0  0  0  0  0  0
    3.2416    1.6140   10.5814 H   0  0  0  0  0  0  0  0  0  0  0  0
    2.8025    6.3006   14.3887 H   0  0  0  0  0  0  0  0  0  0  0  0
    1.1427    5.9752   13.7571 H   0  0  0  0  0  0  0  0  0  0  0  0
    2.1364    7.2925   13.0243 H   0  0  0  0  0  0  0  0  0  0  0  0
    4.5581    7.3922   11.3519 H   0  0  0  0  0  0  0  0  0  0  0  0
    5.9123    6.2708   11.7766 H   0  0  0  0  0  0  0  0  0  0  0  0
    4.8807    6.9543   13.0765 H   0  0  0  0  0  0  0  0  0  0  0  0
  2  3  4  0
  1  5  4  0
  4  5  4  0
  4  6  1  0
  2  6  4  0
  6  7  4  0
  7  9  4  0
  3 10  4  0
  9 10  4  0
 11 12  1  0
  1 12  4  0
 12 13  4  0
 13 14  4  0
  4 14  4  0
 10 15  4  0
  8 15  4  0
  3 16  4  0
  8 16  4  0
 16 17  1  0
 17 18  1  0
 18 19  1  0
 18 20  1  0
 14 21  1  0
 21 22  1  0
 22 23  1  0
 23 24  1  0
 24 25  4  0
 25 26  1  0
 25 27  4  0
 27 28  4  0
 28 29  1  0
 24 30  4  0
 28 30  4  0
 30 31  1  0
  1 32  1  0
  2 33  1  0
  5 34  1  0
  7 35  1  0
  8 36  1  0
  9 37  1  0
 13 38  1  0
 17 39  1  0
 17 40  1  0
 19 41  1  0
 19 42  1  0
 19 43  1  0
 20 44  1  0
 20 45  1  0
 20 46  1  0
 22 47  1  0
 22 48  1  0
 23 49  1  0
 23 50  1  0
 26 51  1  0
 26 52  1  0
 26 53  1  0
 29 54  1  0
 29 55  1  0
 29 56  1  0
 31 57  1  0
 31 58  1  0
 31 59  1  0
M  CHG  2   8   1  28   1
M  END
