1OWE_675_A_1001
     RDKit          3D

 37 39  0  0  0  0  0  0  0  0999 V2000
   17.5332   20.8715   33.1619 N   0  0  0  0  0  0  0  0  0  0  0  0
   18.5091   20.5695   33.9612 C   0  0  0  0  0  0  0  0  0  0  0  0
   18.6217   21.2640   35.2060 N   0  0  0  0  0  0  0  0  0  0  0  0
   19.4910   19.5153   33.6021 C   0  0  0  0  0  0  0  0  0  0  0  0
   19.5993   19.0566   32.2773 C   0  0  0  0  0  0  0  0  0  0  0  0
   20.5275   18.0684   31.9399 C   0  0  0  0  0  0  0  0  0  0  0  0
   21.3647   17.5198   32.9213 C   0  0  0  0  0  0  0  0  0  0  0  0
   22.2992   16.5264   32.5897 C   0  0  0  0  0  0  0  0  0  0  0  0
   23.1368   15.9739   33.5764 C   0  0  0  0  0  0  0  0  0  0  0  0
   23.0361   16.4432   34.8982 C   0  0  0  0  0  0  0  0  0  0  0  0
   22.1082   17.4316   35.2355 C   0  0  0  0  0  0  0  0  0  0  0  0
   21.2675   17.9759   34.2553 C   0  0  0  0  0  0  0  0  0  0  0  0
   20.3333   18.9696   34.5865 C   0  0  0  0  0  0  0  0  0  0  0  0
   24.1303   14.9275   33.2321 C   0  0  0  0  0  0  0  0  0  0  0  0
   25.0092   14.6041   34.0776 O   0  0  0  0  0  0  0  0  0  0  0  0
   24.0725   14.2437   31.9687 N   0  0  0  0  0  0  0  0  0  0  0  0
   24.8242   13.0548   31.6685 C   0  0  0  0  0  0  0  0  0  0  0  0
   24.5699   11.8772   32.3901 C   0  0  0  0  0  0  0  0  0  0  0  0
   25.2733   10.7037   32.1010 C   0  0  0  0  0  0  0  0  0  0  0  0
   26.2265   10.6923   31.0799 C   0  0  0  0  0  0  0  0  0  0  0  0
   26.4725   11.8524   30.3413 C   0  0  0  0  0  0  0  0  0  0  0  0
   25.7719   13.0285   30.6277 C   0  0  0  0  0  0  0  0  0  0  0  0
   17.3793   20.3908   32.2477 H   0  0  0  0  0  0  0  0  0  0  0  0
   18.3965   22.2822   35.2637 H   0  0  0  0  0  0  0  0  0  0  0  0
   18.9801   20.7859   36.0620 H   0  0  0  0  0  0  0  0  0  0  0  0
   18.9799   19.4766   31.4949 H   0  0  0  0  0  0  0  0  0  0  0  0
   20.5926   17.7358   30.9106 H   0  0  0  0  0  0  0  0  0  0  0  0
   22.3831   16.2013   31.5598 H   0  0  0  0  0  0  0  0  0  0  0  0
   23.6703   16.0381   35.6770 H   0  0  0  0  0  0  0  0  0  0  0  0
   22.0489   17.7704   36.2630 H   0  0  0  0  0  0  0  0  0  0  0  0
   20.2501   19.3038   35.6142 H   0  0  0  0  0  0  0  0  0  0  0  0
   23.3625   14.5616   31.2709 H   0  0  0  0  0  0  0  0  0  0  0  0
   23.8322   11.8722   33.1828 H   0  0  0  0  0  0  0  0  0  0  0  0
   25.0775    9.8025   32.6677 H   0  0  0  0  0  0  0  0  0  0  0  0
   26.7688    9.7828   30.8556 H   0  0  0  0  0  0  0  0  0  0  0  0
   27.2008   11.8386   29.5408 H   0  0  0  0  0  0  0  0  0  0  0  0
   25.9551   13.9059   30.0219 H   0  0  0  0  0  0  0  0  0  0  0  0
  1  2  2  0
  2  3  1  0
  2  4  1  0
  4  5  2  0
  5  6  1  0
  6  7  2  0
  7  8  1  0
  8  9  2  0
  9 10  1  0
 10 11  2  0
  7 12  1  0
 11 12  1  0
  4 13  1  0
 12 13  2  0
  9 14  1  0
 14 15  2  0
 14 16  1  0
 16 17  1  0
 17 18  2  0
 18 19  1  0
 19 20  2  0
 20 21  1  0
 17 22  1  0
 21 22  2  0
  1 23  1  0
  3 24  1  0
  3 25  1  0
  5 26  1  0
  6 27  1  0
  8 28  1  0
 10 29  1  0
 11 30  1  0
 13 31  1  0
 16 32  1  0
 18 33  1  0
 19 34  1  0
 20 35  1  0
 21 36  1  0
 22 37  1  0
M  END
