
     RDKit          3D

 33 36  0  0  0  0  0  0  0  0999 V2000
   51.6698   54.9142   20.5075 C   0  0  0  0  0  0  0  0  0  0  0  0
   51.7912   55.8301   21.5112 N   0  0  0  0  0  0  0  0  0  0  0  0
   51.6725   55.1585   22.6965 C   0  0  0  0  0  0  0  0  0  0  0  0
   51.6060   53.8588   22.5076 N   0  0  0  0  0  0  0  0  0  0  0  0
   51.6782   53.6859   21.1337 C   0  0  0  0  0  0  0  0  0  0  0  0
   51.8207   52.3871   20.4876 C   0  0  0  0  0  0  0  0  0  0  0  0
   52.1672   52.2404   19.3192 O   0  0  0  0  0  0  0  0  0  0  0  0
   51.6093   51.3317   21.3266 N   0  0  0  0  0  0  0  0  0  0  0  0
   52.1231   57.2379   21.3289 C   0  0  1  0  0  0  0  0  0  0  0  0
   53.6302   57.4123   21.0865 C   0  0  0  0  0  0  0  0  0  0  0  0
   54.2763   57.9788   22.2217 O   0  0  0  0  0  0  0  0  0  0  0  0
   51.2795   57.8890   20.2077 C   0  0  0  0  0  0  0  0  0  0  0  0
   49.7630   57.6659   20.3351 C   0  0  0  0  0  0  0  0  0  0  0  0
   49.0591   57.7010   19.0619 N   0  0  0  0  0  0  0  0  0  0  0  0
   48.5731   58.8581   18.5031 C   0  0  0  0  0  0  0  0  0  0  0  0
   47.9156   58.5272   17.3424 C   0  0  0  0  0  0  0  0  0  0  0  0
   48.0189   57.1216   17.1755 C   0  0  0  0  0  0  0  0  0  0  0  0
   48.7691   56.6250   18.2451 C   0  0  0  0  0  0  0  0  0  0  0  0
   47.5469   56.2245   16.2010 C   0  0  0  0  0  0  0  0  0  0  0  0
   47.8008   54.8518   16.3359 C   0  0  0  0  0  0  0  0  0  0  0  0
   48.5406   54.3566   17.4072 C   0  0  0  0  0  0  0  0  0  0  0  0
   49.0769   55.2544   18.3449 C   0  0  0  0  0  0  0  0  0  0  0  0
   48.7481   52.9777   17.6476 N   0  0  0  0  0  0  0  0  0  0  0  0
   49.0887   52.0111   16.7190 C   0  0  0  0  0  0  0  0  0  0  0  0
   48.6894   51.9360   15.5591 O   0  0  0  0  0  0  0  0  0  0  0  0
   50.0268   50.9501   17.2625 C   0  0  0  0  0  0  0  0  0  0  0  0
   49.6115   49.5618   16.7808 C   0  0  0  0  0  0  0  0  0  0  0  0
   48.0118   48.8108   18.5903 C   0  0  0  0  0  0  0  0  0  0  0  0
   48.2365   49.1469   17.2491 C   0  0  0  0  0  0  0  0  0  0  0  0
   47.1609   49.1096   16.3512 C   0  0  0  0  0  0  0  0  0  0  0  0
   45.8882   48.7343   16.7845 C   0  0  0  0  0  0  0  0  0  0  0  0
   45.6776   48.3946   18.1194 C   0  0  0  0  0  0  0  0  0  0  0  0
   46.7385   48.4350   19.0222 C   0  0  0  0  0  0  0  0  0  0  0  0
  1  2  4  0
  2  3  4  0
  3  4  4  0
  1  5  4  0
  4  5  4  0
  5  6  1  0
  6  7  2  0
  6  8  1  0
  2  9  1  0
  9 10  1  6
 10 11  1  0
  9 12  1  0
 12 13  1  0
 13 14  1  0
 14 15  4  0
 15 16  4  0
 16 17  4  0
 14 18  4  0
 17 18  4  0
 17 19  4  0
 19 20  4  0
 20 21  4  0
 18 22  4  0
 21 22  4  0
 21 23  1  0
 23 24  1  0
 24 25  2  0
 24 26  1  0
 26 27  1  0
 27 29  1  0
 28 29  4  0
 29 30  4  0
 30 31  4  0
 31 32  4  0
 28 33  4  0
 32 33  4  0
M  END
