8AP0_PRP_AAA_401
     RDKit          3D

 35 35  0  0  0  0  0  0  0  0999 V2000
    4.5124    2.9826    0.2143 C   0  0  1  0  0  0  0  0  0  0  0  0
    3.7950    2.0727    1.2139 C   0  0  1  0  0  0  0  0  0  0  0  0
    2.3714    2.1470    0.7313 C   0  0  1  0  0  0  0  0  0  0  0  0
    2.5480    2.3475   -0.7693 C   0  0  1  0  0  0  0  0  0  0  0  0
    1.4231    3.1945   -1.3708 C   0  0  0  0  0  0  0  0  0  0  0  0
    5.8311    2.5362   -0.0353 O   0  0  0  0  0  0  0  0  0  0  0  0
    4.2731    0.7524    1.1267 O   0  0  0  0  0  0  0  0  0  0  0  0
    1.6523    0.9719    1.0039 O   0  0  0  0  0  0  0  0  0  0  0  0
    3.7958    2.9664   -1.0021 O   0  0  0  0  0  0  0  0  0  0  0  0
    0.2260    2.9285   -0.6789 O   0  0  0  0  0  0  0  0  0  0  0  0
    0.5980    1.9763    0.6850 P   0  0  1  0  0  5  0  0  0  0  0  0
   -0.2549    0.7283    0.6573 O   0  0  0  0  0  0  0  0  0  0  0  0
    2.2324    1.5336    0.6525 O   0  0  0  0  0  0  0  0  0  0  0  0
    0.2680    2.8437    2.1017 O   0  0  0  0  0  0  0  0  0  0  0  0
    5.8038    0.9878   -0.7566 P   0  0  1  0  0  5  0  0  0  0  0  0
    6.6204    1.0514   -2.0286 O   0  0  0  0  0  0  0  0  0  0  0  0
    6.5180   -0.1233    0.3041 O   0  0  0  0  0  0  0  0  0  0  0  0
    4.1959    0.5363   -1.1015 O   0  0  0  0  0  0  0  0  0  0  0  0
    3.2460    0.8634    0.2740 P   0  0  1  0  0  5  0  0  0  0  0  0
    2.9600   -0.4197    1.0231 O   0  0  0  0  0  0  0  0  0  0  0  0
    4.0072    1.9780    1.2998 O   0  0  0  0  0  0  0  0  0  0  0  0
    1.7765    1.5253   -0.2383 O   0  0  0  0  0  0  0  0  0  0  0  0
    4.4705    4.0334    0.5879 H   0  0  0  0  0  0  0  0  0  0  0  0
    3.8699    2.4575    2.2578 H   0  0  0  0  0  0  0  0  0  0  0  0
    1.8674    3.0305    1.1923 H   0  0  0  0  0  0  0  0  0  0  0  0
    2.5567    1.3558   -1.2763 H   0  0  0  0  0  0  0  0  0  0  0  0
    1.3213    2.9333   -2.4494 H   0  0  0  0  0  0  0  0  0  0  0  0
    1.7026    4.2682   -1.2693 H   0  0  0  0  0  0  0  0  0  0  0  0
    5.0542    0.6919    1.7364 H   0  0  0  0  0  0  0  0  0  0  0  0
    1.4592    0.9814    1.9777 H   0  0  0  0  0  0  0  0  0  0  0  0
    2.3682    1.0017    1.4767 H   0  0  0  0  0  0  0  0  0  0  0  0
    0.5218    2.2328    2.8388 H   0  0  0  0  0  0  0  0  0  0  0  0
    5.7931   -0.3924    0.9225 H   0  0  0  0  0  0  0  0  0  0  0  0
    4.4562    1.4312    1.9930 H   0  0  0  0  0  0  0  0  0  0  0  0
    2.0299    2.3425   -0.7374 H   0  0  0  0  0  0  0  0  0  0  0  0
  1  2  1  0
  2  3  1  0
  3  4  1  0
  4  5  1  0
  1  6  1  0
  2  7  1  0
  3  8  1  0
  1  9  1  0
  4  9  1  0
  5 10  1  0
 11 10  1  6
 11 12  2  0
 11 13  1  0
 11 14  1  0
 15  6  1  1
 15 16  2  0
 15 17  1  0
 15 18  1  0
 19 18  1  6
 19 20  2  0
 19 21  1  0
 19 22  1  0
  1 23  1  1
  2 24  1  1
  3 25  1  1
  4 26  1  6
  5 27  1  0
  5 28  1  0
  7 29  1  0
  8 30  1  0
 13 31  1  0
 14 32  1  0
 17 33  1  0
 21 34  1  0
 22 35  1  0
M  END
