8FV9_80J_BBB_801
     RDKit          3D

 44 45  0  0  0  0  0  0  0  0999 V2000
   -2.6439   -0.9771   -4.9441 C   0  0  2  0  0  0  0  0  0  0  0  0
   -3.1789   -0.5777   -2.5341 C   0  0  0  0  0  0  0  0  0  0  0  0
   -1.9116   -0.2558   -6.0594 C   0  0  1  0  0  0  0  0  0  0  0  0
   -1.2445   -1.3871   -6.7903 C   0  0  1  0  0  0  0  0  0  0  0  0
   -3.2003    1.6153   -1.6325 C   0  0  0  0  0  0  0  0  0  0  0  0
   -1.0633   -2.4419   -5.6889 C   0  0  1  0  0  0  0  0  0  0  0  0
   -2.8277    2.1332   -2.8699 C   0  0  0  0  0  0  0  0  0  0  0  0
    0.3943   -2.5086   -5.2152 C   0  0  0  0  0  0  0  0  0  0  0  0
   -2.6571    1.2535   -3.9379 C   0  0  0  0  0  0  0  0  0  0  0  0
   -2.7905    0.4490   -6.8678 F   0  0  0  0  0  0  0  0  0  0  0  0
   -2.8535   -0.0904   -3.7792 N   0  0  0  0  0  4  0  0  0  0  0  0
   -3.3604    0.2755   -1.4913 N   0  0  0  0  0  0  0  0  0  0  0  0
   -3.4093    2.4819   -0.5156 N   0  0  0  0  0  0  0  0  0  0  0  0
   -0.3668    1.1233   -4.6844 O   0  0  0  0  0  0  0  0  0  0  0  0
   -4.3993   -1.6103   -4.7651 O   0  0  0  0  0  0  0  0  0  0  0  0
   -5.2154    0.3899   -2.8750 O   0  0  0  0  0  0  0  0  0  0  0  0
   -3.3133   -1.8139   -2.3364 O   0  0  0  0  0  0  0  0  0  0  0  0
   -0.9581   -0.4904   -2.7183 O   0  0  0  0  0  0  0  0  0  0  0  0
   -2.5568   -3.3448   -4.0668 O   0  0  0  0  0  0  0  0  0  0  0  0
   -3.2727    1.6500   -1.6410 O   0  0  0  0  0  0  0  0  0  0  0  0
   -2.0936   -1.8780   -7.7967 O   0  0  0  0  0  0  0  0  0  0  0  0
   -1.9350   -0.8781   -5.2842 O   0  0  0  0  0  0  0  0  0  0  0  0
   -2.9481   -0.9335   -2.7125 O   0  0  0  0  0  0  0  0  0  0  0  0
   -3.2578    1.2519   -4.3690 O   0  0  0  0  0  0  0  0  0  0  0  0
   -1.9004   -2.1233   -4.5919 O   0  0  0  0  0  0  0  0  0  0  0  0
    0.7933   -1.2316   -4.7738 O   0  0  0  0  0  0  0  0  0  0  0  0
   -0.6052   -0.3386   -4.3688 P   0  0  1  0  0  5  0  0  0  0  0  0
   -2.9875   -1.7066   -4.2282 P   0  0  1  0  0  5  0  0  0  0  0  0
   -3.7135    0.5790   -2.8836 P   0  0  1  0  0  5  0  0  0  0  0  0
   -3.6274   -1.3338   -5.3320 H   0  0  0  0  0  0  0  0  0  0  0  0
   -1.1412    0.4346   -5.6479 H   0  0  0  0  0  0  0  0  0  0  0  0
   -0.2816   -1.0410   -7.2350 H   0  0  0  0  0  0  0  0  0  0  0  0
   -1.3456   -3.4490   -6.0714 H   0  0  0  0  0  0  0  0  0  0  0  0
   -2.6768    3.1976   -3.0070 H   0  0  0  0  0  0  0  0  0  0  0  0
    1.0263   -2.8660   -6.0637 H   0  0  0  0  0  0  0  0  0  0  0  0
    0.4606   -3.2370   -4.3741 H   0  0  0  0  0  0  0  0  0  0  0  0
   -2.3683    1.6611   -4.9011 H   0  0  0  0  0  0  0  0  0  0  0  0
   -3.2992    3.5163   -0.6125 H   0  0  0  0  0  0  0  0  0  0  0  0
   -3.7346    2.0896    0.3973 H   0  0  0  0  0  0  0  0  0  0  0  0
   -1.8302   -0.0379   -2.6011 H   0  0  0  0  0  0  0  0  0  0  0  0
   -3.2380   -3.8483   -4.5815 H   0  0  0  0  0  0  0  0  0  0  0  0
   -2.3062    1.8200   -1.7824 H   0  0  0  0  0  0  0  0  0  0  0  0
   -1.5326   -2.4601   -8.3767 H   0  0  0  0  0  0  0  0  0  0  0  0
   -2.2690    1.2814   -4.3356 H   0  0  0  0  0  0  0  0  0  0  0  0
  1  3  1  0
  3  4  1  0
  4  6  1  0
  5  7  4  0
  6  8  1  0
  7  9  4  0
  3 10  1  0
  9 11  4  0
  2 11  4  0
  1 11  1  0
  5 12  4  0
  2 12  4  0
  5 13  1  0
  2 17  2  0
  4 21  1  0
  1 25  1  0
  6 25  1  0
  8 26  1  0
 14 27  2  0
 27 22  1  6
 26 27  1  0
 27 18  1  0
 28 23  1  1
 15 28  2  0
 28 19  1  0
 22 28  1  0
 16 29  2  0
 29 24  1  6
 23 29  1  0
 20 29  1  0
  1 30  1  6
  3 31  1  1
  4 32  1  6
  6 33  1  6
  7 34  1  0
  8 35  1  0
  8 36  1  0
  9 37  1  0
 13 38  1  0
 13 39  1  0
 18 40  1  0
 19 41  1  0
 20 42  1  0
 21 43  1  0
 24 44  1  0
M  CHG  1  11   1
M  END
