@<TRIPOS>MOLECULE
1SG0_STL_B_502
 29 30 0 0 0
SMALL
GASTEIGER

@<TRIPOS>ATOM
      1 C          32.2540   16.9310   30.8630 C.ar    1  UNL1        0.1209
      2 C          31.6740   16.1320   31.9040 C.ar    1  UNL1        0.0213
      3 C          32.5180   15.4030   32.8040 C.ar    1  UNL1        0.1209
      4 C          33.9470   15.4510   32.6560 C.ar    1  UNL1       -0.0128
      5 C          34.5420   16.2400   31.6200 C.ar    1  UNL1       -0.0181
      6 C          33.6860   16.9870   30.7170 C.ar    1  UNL1       -0.0128
      7 C          36.0000   16.2490   31.4920 C.2     1  UNL1       -0.0538
      8 C          36.6650   17.0320   30.5270 C.2     1  UNL1       -0.0540
      9 C          38.1080   17.0280   30.3600 C.ar    1  UNL1       -0.0248
     10 C          38.9830   16.2110   31.1730 C.ar    1  UNL1       -0.0511
     11 C          40.4060   16.2420   30.9490 C.ar    1  UNL1       -0.0196
     12 C          40.9530   17.0860   29.9200 C.ar    1  UNL1        0.1169
     13 C          40.0820   17.8940   29.1270 C.ar    1  UNL1       -0.0196
     14 C          38.6720   17.8610   29.3480 C.ar    1  UNL1       -0.0511
     15 O          42.2880   17.1250   29.6860 O.3     1  UNL1       -0.5068
     16 O          31.9660   14.6410   33.7920 O.3     1  UNL1       -0.5066
     17 O          31.4570   17.6140   30.0270 O.3     1  UNL1       -0.5066
     18 H          30.6481   16.0822   32.0048 H       1  UNL1        0.0691
     19 H          34.5477   14.9135   33.3004 H       1  UNL1        0.0660
     20 H          34.1046   17.5602   29.9678 H       1  UNL1        0.0660
     21 H          36.5601   15.6622   32.1299 H       1  UNL1        0.0624
     22 H          36.1002   17.6366   29.9101 H       1  UNL1        0.0624
     23 H          38.5887   15.6076   31.9115 H       1  UNL1        0.0625
     24 H          41.0324   15.6593   31.5261 H       1  UNL1        0.0654
     25 H          40.4733   18.5036   28.3919 H       1  UNL1        0.0654
     26 H          38.0521   18.4477   28.7679 H       1  UNL1        0.0625
     27 H          42.8692   16.5994   30.1997 H       1  UNL1        0.2921
     28 H          31.0350   14.6066   33.8923 H       1  UNL1        0.2921
     29 H          30.5264   17.5726   30.1283 H       1  UNL1        0.2921
@<TRIPOS>BOND
     1     1     2   ar
     2     2     3   ar
     3     3     4   ar
     4     4     5   ar
     5     1     6   ar
     6     5     6   ar
     7     5     7    1
     8     7     8    2
     9     8     9    1
    10     9    10   ar
    11    10    11   ar
    12    11    12   ar
    13    12    13   ar
    14     9    14   ar
    15    13    14   ar
    16    12    15    1
    17     3    16    1
    18     1    17    1
    19     2    18    1
    20     4    19    1
    21     6    20    1
    22     7    21    1
    23     8    22    1
    24    10    23    1
    25    11    24    1
    26    13    25    1
    27    14    26    1
    28    15    27    1
    29    16    28    1
    30    17    29    1
