7Q5I_I0F_AAA_901
     RDKit          3D

 27 28  0  0  0  0  0  0  0  0999 V2000
   16.2926   54.8941   13.7735 N   0  0  0  0  0  0  0  0  0  0  0  0
   19.4276   53.8888   11.3126 C   0  0  1  0  0  0  0  0  0  0  0  0
   18.3051   52.9218   11.6480 C   0  0  1  0  0  0  0  0  0  0  0  0
   18.7224   51.4847   11.6221 C   0  0  0  0  0  0  0  0  0  0  0  0
   15.2553   54.1994   14.4964 C   0  0  0  0  0  0  0  0  0  0  0  0
   14.7576   54.6981   15.7863 C   0  0  0  0  0  0  0  0  0  0  0  0
   13.3816   54.6233   17.7750 C   0  0  0  0  0  0  0  0  0  0  0  0
   12.6099   55.5690   20.2942 C   0  0  0  0  0  0  0  0  0  0  0  0
   13.8877   55.8275   18.2449 C   0  0  0  0  0  0  0  0  0  0  0  0
   11.2604   55.3021   22.4120 C   0  0  0  0  0  0  0  0  0  0  0  0
   12.7350   57.2886   22.0802 C   0  0  0  0  0  0  0  0  0  0  0  0
   12.2008   56.0362   21.5783 N   0  0  0  0  0  0  0  0  0  0  0  0
   13.4977   56.2876   19.4967 C   0  0  0  0  0  0  0  0  0  0  0  0
   12.1198   54.3689   19.8025 C   0  0  0  0  0  0  0  0  0  0  0  0
   12.4865   53.8752   18.5536 C   0  0  0  0  0  0  0  0  0  0  0  0
   13.7865   54.1241   16.4590 C   0  0  0  0  0  0  0  0  0  0  0  0
   15.4494   55.8831   16.2813 C   0  0  0  0  0  0  0  0  0  0  0  0
   16.0021   56.8280   16.6903 N   0  0  0  0  0  0  0  0  0  0  0  0
   14.8205   53.1604   13.9516 O   0  0  0  0  0  0  0  0  0  0  0  0
   16.8101   54.2936   12.5593 C   0  0  2  0  0  0  0  0  0  0  0  0
   17.8114   53.3385   12.8817 O   0  0  0  0  0  0  0  0  0  0  0  0
   19.3709   51.2313   12.8402 O   0  0  0  0  0  0  0  0  0  0  0  0
   19.7656   53.6867    9.9829 O   0  0  0  0  0  0  0  0  0  0  0  0
   18.8860   55.2842   11.5679 C   0  0  2  0  0  0  0  0  0  0  0  0
   19.3233   55.6930   12.8409 O   0  0  0  0  0  0  0  0  0  0  0  0
   17.3724   55.3222   11.6186 C   0  0  1  0  0  0  0  0  0  0  0  0
   16.7849   55.2053   10.3557 O   0  0  0  0  0  0  0  0  0  0  0  0
  2  3  1  0
  3  4  1  0
  1  5  1  0
  5  6  1  0
  7  9  2  0
  8 12  1  0
 10 12  1  6
 11 12  1  1
  9 13  1  0
  8 13  2  0
  8 14  1  0
  7 15  1  0
 14 15  2  0
  6 16  2  0
  7 16  1  0
  6 17  1  0
 17 18  3  0
  5 19  2  0
 20  1  1  1
  3 21  1  1
 20 21  1  0
  4 22  1  1
  2 23  1  6
  2 24  1  0
 24 25  1  1
 24 26  1  0
 20 26  1  0
 26 27  1  6
M  END
$$$$
