1VCJ_IBA_A_1
     RDKit          3D

 25 26  0  0  0  0  0  0  0  0999 V2000
   38.2631  -12.0982   61.4973 C   0  0  0  0  0  0  0  0  0  0  0  0
   36.8554  -12.2134   61.6296 C   0  0  0  0  0  0  0  0  0  0  0  0
   36.0671  -12.5810   60.5010 C   0  0  0  0  0  0  0  0  0  0  0  0
   36.7196  -12.8095   59.2571 C   0  0  0  0  0  0  0  0  0  0  0  0
   38.1164  -12.6799   59.1389 C   0  0  0  0  0  0  0  0  0  0  0  0
   38.8826  -12.3297   60.2660 C   0  0  0  0  0  0  0  0  0  0  0  0
   38.7496  -12.8916   57.8354 C   0  0  0  0  0  0  0  0  0  0  0  0
   37.9593  -13.4164   56.8763 O   0  0  0  0  0  0  0  0  0  0  0  0
   39.8684  -12.5809   57.6365 O   0  0  0  0  0  0  0  0  0  0  0  0
   34.7175  -12.6846   60.6622 N   0  0  0  0  0  0  0  0  0  0  0  0
   33.7465  -13.0247   59.6134 C   0  0  2  0  0  0  0  0  0  0  0  0
   33.1428  -11.7164   59.0465 C   0  0  0  0  0  0  0  0  0  0  0  0
   32.6872  -13.9797   60.2273 C   0  0  0  0  0  0  0  0  0  0  0  0
   32.4348  -11.8888   57.6894 C   0  0  0  0  0  0  0  0  0  0  0  0
   32.1597  -13.5849   61.6186 C   0  0  0  0  0  0  0  0  0  0  0  0
   36.2747  -11.9447   62.8636 N   0  0  0  0  0  0  0  0  0  0  0  0
   36.4706  -10.6829   63.6508 C   0  0  1  0  0  0  0  0  0  0  0  0
   35.1823  -10.6851   64.5214 C   0  0  0  0  0  0  0  0  0  0  0  0
   34.7473  -12.1457   64.6862 C   0  0  0  0  0  0  0  0  0  0  0  0
   35.3968  -12.7590   63.4762 C   0  0  0  0  0  0  0  0  0  0  0  0
   35.1001  -13.8976   63.0952 O   0  0  0  0  0  0  0  0  0  0  0  0
   37.7886  -10.6915   64.5325 C   0  0  0  0  0  0  0  0  0  0  0  0
   37.7609  -11.7612   65.4819 O   0  0  0  0  0  0  0  0  0  0  0  0
   36.4719   -9.3989   62.7628 C   0  0  0  0  0  0  0  0  0  0  0  0
   35.2991   -9.1200   61.9380 N   0  0  0  0  0  0  0  0  0  0  0  0
  1  2  2  0
  2  3  1  0
  3  4  2  0
  4  5  1  0
  1  6  1  0
  5  6  2  0
  5  7  1  0
  7  8  1  0
  7  9  2  0
  3 10  1  0
 10 11  1  0
 11 12  1  1
 11 13  1  0
 12 14  1  0
 13 15  1  0
  2 16  1  0
 16 17  1  0
 17 18  1  0
 18 19  1  0
 16 20  1  0
 19 20  1  0
 20 21  2  0
 17 22  1  1
 22 23  1  0
 17 24  1  0
 24 25  1  0
M  END
