1P62_GEO_B_302
     RDKit          3D

 18 19  0  0  0  0  0  0  0  0999 V2000
   72.0141   36.5728   18.4643 O   0  0  0  0  0  0  0  0  0  0  0  0
   72.7566   36.7646   19.6709 C   0  0  0  0  0  0  0  0  0  0  0  0
   72.0096   37.8352   20.5198 C   0  0  1  0  0  0  0  0  0  0  0  0
   71.4402   38.7995   19.5862 O   0  0  0  0  0  0  0  0  0  0  0  0
   70.1336   39.2057   20.0029 C   0  0  1  0  0  0  0  0  0  0  0  0
   69.2829   39.6380   18.8634 N   0  0  0  0  0  0  0  0  0  0  0  0
   69.4397   39.1852   17.6379 C   0  0  0  0  0  0  0  0  0  0  0  0
   68.8668   39.7673   16.6156 C   0  0  0  0  0  0  0  0  0  0  0  0
   67.9886   40.7187   16.7924 C   0  0  0  0  0  0  0  0  0  0  0  0
   67.7052   41.1313   18.0320 N   0  0  0  0  0  0  0  0  0  0  0  0
   68.3499   40.5947   19.0880 C   0  0  0  0  0  0  0  0  0  0  0  0
   68.0543   41.0305   20.3213 O   0  0  0  0  0  0  0  0  0  0  0  0
   67.3007   41.2946   15.7872 N   0  0  0  0  0  0  0  0  0  0  0  0
   69.6194   37.9456   20.7438 C   0  0  2  0  0  0  0  0  0  0  0  0
   69.0788   37.1127   19.8802 F   0  0  0  0  0  0  0  0  0  0  0  0
   68.6472   38.2616   21.5540 F   0  0  0  0  0  0  0  0  0  0  0  0
   70.8733   37.3380   21.4058 C   0  0  2  0  0  0  0  0  0  0  0  0
   70.9610   37.8003   22.8018 O   0  0  0  0  0  0  0  0  0  0  0  0
  1  2  1  0
  3  2  1  6
  3  4  1  0
  4  5  1  0
  5  6  1  6
  6  7  1  0
  7  8  2  0
  8  9  1  0
  9 10  2  0
  6 11  1  0
 10 11  1  0
 11 12  2  0
  9 13  1  0
  5 14  1  0
 14 15  1  6
 14 16  1  0
  3 17  1  0
 14 17  1  0
 17 18  1  1
M  END
