6ZCY_QF8_A_701
     RDKit          3D

 33 37  0  0  0  0  0  0  0  0999 V2000
   -2.0752    8.0107   14.7300 C   0  0  0  0  0  0  0  0  0  0  0  0
   -0.9660    8.5030   15.4665 C   0  0  0  0  0  0  0  0  0  0  0  0
   -0.4749    7.4354   16.1783 C   0  0  0  0  0  0  0  0  0  0  0  0
    6.6903    5.0285   15.4357 N   0  0  0  0  0  0  0  0  0  0  0  0
    0.4264    3.2795   16.3159 C   0  0  0  0  0  0  0  0  0  0  0  0
    2.9855    3.3944   16.1187 C   0  0  0  0  0  0  0  0  0  0  0  0
    4.0775    2.5362   16.2741 C   0  0  0  0  0  0  0  0  0  0  0  0
    5.3713    2.9853   16.0606 C   0  0  0  0  0  0  0  0  0  0  0  0
    5.5621    4.3192   15.7236 C   0  0  0  0  0  0  0  0  0  0  0  0
    4.4855    5.2002   15.5790 C   0  0  0  0  0  0  0  0  0  0  0  0
    3.1878    4.7466   15.8125 C   0  0  0  0  0  0  0  0  0  0  0  0
    5.0909    6.4581   15.2341 C   0  0  0  0  0  0  0  0  0  0  0  0
    8.0718    4.5700   15.4588 C   0  0  0  0  0  0  0  0  0  0  0  0
    4.3978    7.7572   14.9882 C   0  0  0  0  0  0  0  0  0  0  0  0
    1.3071   11.2646   14.8596 C   0  0  0  0  0  0  0  0  0  0  0  0
    2.0310   10.6034   13.5971 C   0  0  0  0  0  0  0  0  0  0  0  0
    1.8437    8.9633   15.2574 C   0  0  0  0  0  0  0  0  0  0  0  0
    3.1700    7.8119   14.9975 O   0  0  0  0  0  0  0  0  0  0  0  0
    5.1882    8.8180   14.8139 N   0  0  0  0  0  0  0  0  0  0  0  0
    4.6525   10.1376   14.5051 C   0  0  0  0  0  0  0  0  0  0  0  0
    6.4156    6.3510   15.1846 N   0  0  0  0  0  0  0  0  0  0  0  0
    1.7106    2.8138   16.3080 N   0  0  0  0  0  0  0  0  0  0  0  0
   -0.5261    2.3589   16.5355 N   0  0  0  0  0  0  0  0  0  0  0  0
   -1.7891    2.8251   16.5786 C   0  0  0  0  0  0  0  0  0  0  0  0
   -2.1367    4.1552   16.4078 C   0  0  0  0  0  0  0  0  0  0  0  0
    0.2369    4.5905   16.1085 N   0  0  0  0  0  0  0  0  0  0  0  0
   -1.0363    5.0085   16.1652 C   0  0  0  0  0  0  0  0  0  0  0  0
   -1.2332    6.3716   15.8131 N   0  0  0  0  0  0  0  0  0  0  0  0
   -2.1755    6.7070   14.8908 N   0  0  0  0  0  0  0  0  0  0  0  0
   -3.0236    8.7166   13.8159 C   0  0  0  0  0  0  0  0  0  0  0  0
   -0.5887    9.7892   15.4735 N   0  0  0  0  0  0  0  0  0  0  0  0
    0.8391   10.0600   15.6803 C   0  0  2  0  0  0  0  0  0  0  0  0
    2.0040    9.1402   13.8054 N   0  0  0  0  0  0  0  0  0  0  0  0
  1  2  1  0
  2  3  2  0
  6  7  2  0
  7  8  1  0
  4  9  1  0
  8  9  2  0
  9 10  1  0
 10 11  2  0
  6 11  1  0
 10 12  1  0
  4 13  1  0
 12 14  1  0
 15 16  1  0
 14 18  2  0
 14 19  1  0
 19 20  1  0
 12 21  2  0
  4 21  1  0
  6 22  1  0
  5 22  1  0
  5 23  2  0
 23 24  1  0
 24 25  2  0
  5 26  1  0
 26 27  2  0
 25 27  1  0
  3 28  1  0
 27 28  1  0
  1 29  2  0
 28 29  1  0
  1 30  1  0
  2 31  1  0
 15 32  1  0
 32 31  1  6
 17 32  1  0
 16 33  1  0
 17 33  1  0
M  END
