1U1C_BAU_F_5051
     RDKit          3D

 20 21  0  0  0  0  0  0  0  0999 V2000
   10.1980  139.4000   45.3180 O   0  0  0  0  0  0  0  0  0  0  0  0
    9.1200  138.7210   45.8420 C   0  0  0  0  0  0  0  0  0  0  0  0
    8.9850  137.2500   45.8090 C   0  0  0  0  0  0  0  0  0  0  0  0
    9.5180  136.5090   44.8360 O   0  0  0  0  0  0  0  0  0  0  0  0
   10.0070  135.4240   45.4490 C   0  0  0  0  0  0  0  0  0  0  0  0
   11.2300  135.2650   46.0150 N   0  0  0  0  0  0  0  0  0  0  0  0
   11.4230  134.8310   47.3900 C   0  0  0  0  0  0  0  0  0  0  0  0
   10.4900  134.5950   48.1770 O   0  0  0  0  0  0  0  0  0  0  0  0
   12.7660  134.7130   47.8470 N   0  0  0  0  0  0  0  0  0  0  0  0
   13.8810  135.0050   47.0160 C   0  0  0  0  0  0  0  0  0  0  0  0
   15.0180  134.8390   47.4920 O   0  0  0  0  0  0  0  0  0  0  0  0
   12.3720  135.5590   45.1880 C   0  0  0  0  0  0  0  0  0  0  0  0
   13.6950  135.4480   45.6570 C   0  0  0  0  0  0  0  0  0  0  0  0
   14.9030  135.8690   44.7380 C   0  0  0  0  0  0  0  0  0  0  0  0
   15.3760  137.2970   45.0040 C   0  0  0  0  0  0  0  0  0  0  0  0
   14.6280  138.4360   44.5000 C   0  0  0  0  0  0  0  0  0  0  0  0
   15.1000  139.7800   44.7450 C   0  0  0  0  0  0  0  0  0  0  0  0
   16.3190  139.9710   45.4950 C   0  0  0  0  0  0  0  0  0  0  0  0
   17.0540  138.8350   45.9920 C   0  0  0  0  0  0  0  0  0  0  0  0
   16.5920  137.5040   45.7530 C   0  0  0  0  0  0  0  0  0  0  0  0
  1  2  1  0
  2  3  1  0
  3  4  1  0
  4  5  1  0
  5  6  1  0
  6  7  1  0
  7  8  2  0
  7  9  1  0
  9 10  1  0
 10 11  2  0
  6 12  1  0
 10 13  1  0
 12 13  2  0
 13 14  1  0
 14 15  1  0
 15 16  2  0
 16 17  1  0
 17 18  2  0
 18 19  1  0
 15 20  1  0
 19 20  2  0
M  END
$$$$
