@<TRIPOS>MOLECULE
1U1C_BAU_F_5051
 36 37 0 0 0
SMALL
GASTEIGER

@<TRIPOS>ATOM
      1 O          10.1980  139.4000   45.3180 O.3     1  UNL1       -0.3927
      2 C           9.1200  138.7210   45.8420 C.3     1  UNL1        0.0676
      3 C           8.9850  137.2500   45.8090 C.3     1  UNL1        0.0730
      4 O           9.5180  136.5090   44.8360 O.3     1  UNL1       -0.3569
      5 C          10.0070  135.4240   45.4490 C.3     1  UNL1        0.1283
      6 N          11.2300  135.2650   46.0150 N.ar    1  UNL1       -0.2765
      7 C          11.4230  134.8310   47.3900 C.ar    1  UNL1        0.3311
      8 O          10.4900  134.5950   48.1770 O.2     1  UNL1       -0.2464
      9 N          12.7660  134.7130   47.8470 N.ar    1  UNL1       -0.2746
     10 C          13.8810  135.0050   47.0160 C.ar    1  UNL1        0.2574
     11 O          15.0180  134.8390   47.4920 O.2     1  UNL1       -0.2674
     12 C          12.3720  135.5590   45.1880 C.ar    1  UNL1        0.0202
     13 C          13.6950  135.4480   45.6570 C.ar    1  UNL1        0.0376
     14 C          14.9030  135.8690   44.7380 C.3     1  UNL1        0.0041
     15 C          15.3760  137.2970   45.0040 C.ar    1  UNL1       -0.0428
     16 C          14.6280  138.4360   44.5000 C.ar    1  UNL1       -0.0583
     17 C          15.1000  139.7800   44.7450 C.ar    1  UNL1       -0.0615
     18 C          16.3190  139.9710   45.4950 C.ar    1  UNL1       -0.0617
     19 C          17.0540  138.8350   45.9920 C.ar    1  UNL1       -0.0615
     20 C          16.5920  137.5040   45.7530 C.ar    1  UNL1       -0.0583
     21 H          10.0755  140.3530   45.4509 H       1  UNL1        0.2095
     22 H           8.2592  139.1045   45.3352 H       1  UNL1        0.0580
     23 H           9.2554  138.8934   46.8893 H       1  UNL1        0.0580
     24 H           7.9345  137.0467   45.7978 H       1  UNL1        0.0583
     25 H           9.5656  136.9541   46.6577 H       1  UNL1        0.0583
     26 H           9.9447  134.6473   44.7157 H       1  UNL1        0.0801
     27 H           9.4193  135.4641   46.3422 H       1  UNL1        0.0801
     28 H          12.9281  134.4184   48.7723 H       1  UNL1        0.1734
     29 H          12.2145  135.8627   44.2143 H       1  UNL1        0.0816
     30 H          14.5974  135.7945   43.7153 H       1  UNL1        0.0364
     31 H          15.7192  135.2122   44.9558 H       1  UNL1        0.0364
     32 H          13.7579  138.2851   43.9660 H       1  UNL1        0.0620
     33 H          14.5727  140.5924   44.3886 H       1  UNL1        0.0618
     34 H          16.6659  140.9259   45.6762 H       1  UNL1        0.0618
     35 H          17.9240  138.9846   46.5266 H       1  UNL1        0.0618
     36 H          17.1242  136.6966   46.1135 H       1  UNL1        0.0620
@<TRIPOS>BOND
     1     1     2    1
     2     2     3    1
     3     3     4    1
     4     4     5    1
     5     5     6    1
     6     6     7   ar
     7     7     8    2
     8     7     9   ar
     9     9    10   ar
    10    10    11    2
    11     6    12   ar
    12    10    13   ar
    13    12    13   ar
    14    13    14    1
    15    14    15    1
    16    15    16   ar
    17    16    17   ar
    18    17    18   ar
    19    18    19   ar
    20    15    20   ar
    21    19    20   ar
    22     1    21    1
    23     2    22    1
    24     2    23    1
    25     3    24    1
    26     3    25    1
    27     5    26    1
    28     5    27    1
    29     9    28    1
    30    12    29    1
    31    14    30    1
    32    14    31    1
    33    16    32    1
    34    17    33    1
    35    18    34    1
    36    19    35    1
    37    20    36    1
