1U1C_BAU_A_5400
     RDKit          3D

 20 21  0  0  0  0  0  0  0  0999 V2000
   12.1220   97.9760   70.5720 O   0  0  0  0  0  0  0  0  0  0  0  0
   10.9020   98.6120   70.6050 C   0  0  0  0  0  0  0  0  0  0  0  0
   10.3780   99.3150   71.7920 C   0  0  0  0  0  0  0  0  0  0  0  0
   10.6080   98.8990   73.0420 O   0  0  0  0  0  0  0  0  0  0  0  0
   10.9110  100.0110   73.7200 C   0  0  0  0  0  0  0  0  0  0  0  0
   12.1070  100.6440   73.7920 N   0  0  0  0  0  0  0  0  0  0  0  0
   12.2730  102.0610   73.5080 C   0  0  0  0  0  0  0  0  0  0  0  0
   11.3460  102.8070   73.1380 O   0  0  0  0  0  0  0  0  0  0  0  0
   13.5890  102.5860   73.6240 N   0  0  0  0  0  0  0  0  0  0  0  0
   14.7030  101.7810   73.9890 C   0  0  0  0  0  0  0  0  0  0  0  0
   15.8180  102.3330   74.0470 O   0  0  0  0  0  0  0  0  0  0  0  0
   13.2490   99.8420   74.1620 C   0  0  0  0  0  0  0  0  0  0  0  0
   14.5480  100.3720   74.2580 C   0  0  0  0  0  0  0  0  0  0  0  0
   15.7760   99.4250   74.5480 C   0  0  0  0  0  0  0  0  0  0  0  0
   16.5310   99.0330   73.2790 C   0  0  0  0  0  0  0  0  0  0  0  0
   16.0100   98.0070   72.3930 C   0  0  0  0  0  0  0  0  0  0  0  0
   16.6930   97.6960   71.1580 C   0  0  0  0  0  0  0  0  0  0  0  0
   17.9010   98.4120   70.8270 C   0  0  0  0  0  0  0  0  0  0  0  0
   18.4120   99.4250   71.7140 C   0  0  0  0  0  0  0  0  0  0  0  0
   17.7430   99.7370   72.9350 C   0  0  0  0  0  0  0  0  0  0  0  0
  1  2  1  0
  2  3  1  0
  3  4  1  0
  4  5  1  0
  5  6  1  0
  6  7  1  0
  7  8  2  0
  7  9  1  0
  9 10  1  0
 10 11  2  0
  6 12  1  0
 10 13  1  0
 12 13  2  0
 13 14  1  0
 14 15  1  0
 15 16  2  0
 16 17  1  0
 17 18  2  0
 18 19  1  0
 15 20  1  0
 19 20  2  0
M  END
$$$$
1U1C_BAU_E_5041
     RDKit          3D

 20 21  0  0  0  0  0  0  0  0999 V2000
  -10.2420  145.2160   49.9750 O   0  0  0  0  0  0  0  0  0  0  0  0
   -9.1630  144.8090   50.7250 C   0  0  0  0  0  0  0  0  0  0  0  0
   -8.9470  145.2000   52.1340 C   0  0  0  0  0  0  0  0  0  0  0  0
   -9.4370  146.3290   52.6540 O   0  0  0  0  0  0  0  0  0  0  0  0
   -9.9370  145.9770   53.8440 C   0  0  0  0  0  0  0  0  0  0  0  0
  -11.1620  145.4620   54.1090 N   0  0  0  0  0  0  0  0  0  0  0  0
  -11.3680  144.2180   54.8370 C   0  0  0  0  0  0  0  0  0  0  0  0
  -10.4440  143.4890   55.2440 O   0  0  0  0  0  0  0  0  0  0  0  0
  -12.7130  143.8060   55.0360 N   0  0  0  0  0  0  0  0  0  0  0  0
  -13.8210  144.5560   54.5520 C   0  0  0  0  0  0  0  0  0  0  0  0
  -14.9590  144.1300   54.8160 O   0  0  0  0  0  0  0  0  0  0  0  0
  -12.2960  146.2080   53.6220 C   0  0  0  0  0  0  0  0  0  0  0  0
  -13.6240  145.7820   53.8130 C   0  0  0  0  0  0  0  0  0  0  0  0
  -14.8130  146.5810   53.1560 C   0  0  0  0  0  0  0  0  0  0  0  0
  -15.2450  146.0090   51.8040 C   0  0  0  0  0  0  0  0  0  0  0  0
  -14.4620  146.2570   50.6070 C   0  0  0  0  0  0  0  0  0  0  0  0
  -14.8700  145.6900   49.3420 C   0  0  0  0  0  0  0  0  0  0  0  0
  -16.0630  144.8790   49.2860 C   0  0  0  0  0  0  0  0  0  0  0  0
  -16.8360  144.6380   50.4780 C   0  0  0  0  0  0  0  0  0  0  0  0
  -16.4360  145.1980   51.7300 C   0  0  0  0  0  0  0  0  0  0  0  0
  1  2  1  0
  2  3  1  0
  3  4  1  0
  4  5  1  0
  5  6  1  0
  6  7  1  0
  7  8  2  0
  7  9  1  0
  9 10  1  0
 10 11  2  0
  6 12  1  0
 10 13  1  0
 12 13  2  0
 13 14  1  0
 14 15  1  0
 15 16  2  0
 16 17  1  0
 17 18  2  0
 18 19  1  0
 15 20  1  0
 19 20  2  0
M  END
$$$$
1U1C_BAU_C_5021
     RDKit          3D

 20 21  0  0  0  0  0  0  0  0999 V2000
  -11.9660  129.7410   95.7260 O   0  0  0  0  0  0  0  0  0  0  0  0
  -10.8080  129.4730   95.0300 C   0  0  0  0  0  0  0  0  0  0  0  0
  -10.3470  128.1100   94.6950 C   0  0  0  0  0  0  0  0  0  0  0  0
  -10.7380  127.0270   95.3720 O   0  0  0  0  0  0  0  0  0  0  0  0
  -11.0480  126.1240   94.4330 C   0  0  0  0  0  0  0  0  0  0  0  0
  -12.2470  125.9330   93.8290 N   0  0  0  0  0  0  0  0  0  0  0  0
  -12.4310  125.9550   92.3850 C   0  0  0  0  0  0  0  0  0  0  0  0
  -11.5170  126.1910   91.5710 O   0  0  0  0  0  0  0  0  0  0  0  0
  -13.7550  125.7410   91.9070 N   0  0  0  0  0  0  0  0  0  0  0  0
  -14.8590  125.5210   92.7820 C   0  0  0  0  0  0  0  0  0  0  0  0
  -15.9840  125.3700   92.2700 O   0  0  0  0  0  0  0  0  0  0  0  0
  -13.3750  125.7040   94.6960 C   0  0  0  0  0  0  0  0  0  0  0  0
  -14.6830  125.5110   94.2140 C   0  0  0  0  0  0  0  0  0  0  0  0
  -15.8950  125.4410   95.2220 C   0  0  0  0  0  0  0  0  0  0  0  0
  -16.6050  126.7880   95.3750 C   0  0  0  0  0  0  0  0  0  0  0  0
  -16.0350  127.8430   96.1940 C   0  0  0  0  0  0  0  0  0  0  0  0
  -16.6860  129.1320   96.2820 C   0  0  0  0  0  0  0  0  0  0  0  0
  -17.9080  129.3550   95.5460 C   0  0  0  0  0  0  0  0  0  0  0  0
  -18.4700  128.3020   94.7350 C   0  0  0  0  0  0  0  0  0  0  0  0
  -17.8310  127.0270   94.6500 C   0  0  0  0  0  0  0  0  0  0  0  0
  1  2  1  0
  2  3  1  0
  3  4  1  0
  4  5  1  0
  5  6  1  0
  6  7  1  0
  7  8  2  0
  7  9  1  0
  9 10  1  0
 10 11  2  0
  6 12  1  0
 10 13  1  0
 12 13  2  0
 13 14  1  0
 14 15  1  0
 15 16  2  0
 16 17  1  0
 17 18  2  0
 18 19  1  0
 15 20  1  0
 19 20  2  0
M  END
$$$$
1U1C_BAU_D_5031
     RDKit          3D

 20 21  0  0  0  0  0  0  0  0999 V2000
    7.1060  140.3820   93.6100 O   0  0  0  0  0  0  0  0  0  0  0  0
    6.0730  139.9790   92.7930 C   0  0  0  0  0  0  0  0  0  0  0  0
    5.6580  140.6980   91.5710 C   0  0  0  0  0  0  0  0  0  0  0  0
    5.9240  141.9930   91.3690 O   0  0  0  0  0  0  0  0  0  0  0  0
    6.4440  142.0590   90.1370 C   0  0  0  0  0  0  0  0  0  0  0  0
    7.7300  141.8370   89.7630 N   0  0  0  0  0  0  0  0  0  0  0  0
    8.1090  140.8510   88.7610 C   0  0  0  0  0  0  0  0  0  0  0  0
    7.3010  140.0810   88.2120 O   0  0  0  0  0  0  0  0  0  0  0  0
    9.4960  140.7300   88.4720 N   0  0  0  0  0  0  0  0  0  0  0  0
   10.4820  141.5200   89.1280 C   0  0  0  0  0  0  0  0  0  0  0  0
   11.6690  141.3640   88.7940 O   0  0  0  0  0  0  0  0  0  0  0  0
    8.7420  142.6270   90.4190 C   0  0  0  0  0  0  0  0  0  0  0  0
   10.1140  142.4850   90.1370 C   0  0  0  0  0  0  0  0  0  0  0  0
   11.1860  143.2600   90.9930 C   0  0  0  0  0  0  0  0  0  0  0  0
   11.7990  142.4000   92.1030 C   0  0  0  0  0  0  0  0  0  0  0  0
   11.0170  142.0050   93.2620 C   0  0  0  0  0  0  0  0  0  0  0  0
   11.6010  141.1670   94.2850 C   0  0  0  0  0  0  0  0  0  0  0  0
   12.9690  140.7310   94.1420 C   0  0  0  0  0  0  0  0  0  0  0  0
   13.7390  141.1300   92.9890 C   0  0  0  0  0  0  0  0  0  0  0  0
   13.1660  141.9570   91.9750 C   0  0  0  0  0  0  0  0  0  0  0  0
  1  2  1  0
  2  3  1  0
  3  4  1  0
  4  5  1  0
  5  6  1  0
  6  7  1  0
  7  8  2  0
  7  9  1  0
  9 10  1  0
 10 11  2  0
  6 12  1  0
 10 13  1  0
 12 13  2  0
 13 14  1  0
 14 15  1  0
 15 16  2  0
 16 17  1  0
 17 18  2  0
 18 19  1  0
 15 20  1  0
 19 20  2  0
M  END
$$$$
1U1C_BAU_B_5011
     RDKit          3D

 20 21  0  0  0  0  0  0  0  0999 V2000
   -7.1850   98.0530   59.8720 O   0  0  0  0  0  0  0  0  0  0  0  0
   -6.1480   98.9400   60.0520 C   0  0  0  0  0  0  0  0  0  0  0  0
   -5.7390   99.9340   59.0390 C   0  0  0  0  0  0  0  0  0  0  0  0
   -5.9820   99.7790   57.7330 O   0  0  0  0  0  0  0  0  0  0  0  0
   -6.5350  100.9380   57.3520 C   0  0  0  0  0  0  0  0  0  0  0  0
   -7.8290  101.3260   57.4760 N   0  0  0  0  0  0  0  0  0  0  0  0
   -8.2430  102.5250   58.1900 C   0  0  0  0  0  0  0  0  0  0  0  0
   -7.4560  103.2820   58.7860 O   0  0  0  0  0  0  0  0  0  0  0  0
   -9.6390  102.7930   58.2310 N   0  0  0  0  0  0  0  0  0  0  0  0
  -10.5990  101.9400   57.6180 C   0  0  0  0  0  0  0  0  0  0  0  0
  -11.7970  102.2490   57.7240 O   0  0  0  0  0  0  0  0  0  0  0  0
   -8.8160  100.4740   56.8610 C   0  0  0  0  0  0  0  0  0  0  0  0
  -10.1950  100.7460   56.9210 C   0  0  0  0  0  0  0  0  0  0  0  0
  -11.2340   99.7230   56.3250 C   0  0  0  0  0  0  0  0  0  0  0  0
  -11.7950   98.7730   57.3840 C   0  0  0  0  0  0  0  0  0  0  0  0
  -10.9820   97.6950   57.9230 C   0  0  0  0  0  0  0  0  0  0  0  0
  -11.4970   96.8530   58.9790 C   0  0  0  0  0  0  0  0  0  0  0  0
  -12.8280   97.0990   59.4820 C   0  0  0  0  0  0  0  0  0  0  0  0
  -13.6300   98.1680   58.9400 C   0  0  0  0  0  0  0  0  0  0  0  0
  -13.1250   99.0020   57.8930 C   0  0  0  0  0  0  0  0  0  0  0  0
  1  2  1  0
  2  3  1  0
  3  4  1  0
  4  5  1  0
  5  6  1  0
  6  7  1  0
  7  8  2  0
  7  9  1  0
  9 10  1  0
 10 11  2  0
  6 12  1  0
 10 13  1  0
 12 13  2  0
 13 14  1  0
 14 15  1  0
 15 16  2  0
 16 17  1  0
 17 18  2  0
 18 19  1  0
 15 20  1  0
 19 20  2  0
M  END
$$$$
1U1C_BAU_F_5051
     RDKit          3D

 20 21  0  0  0  0  0  0  0  0999 V2000
   10.1980  139.4000   45.3180 O   0  0  0  0  0  0  0  0  0  0  0  0
    9.1200  138.7210   45.8420 C   0  0  0  0  0  0  0  0  0  0  0  0
    8.9850  137.2500   45.8090 C   0  0  0  0  0  0  0  0  0  0  0  0
    9.5180  136.5090   44.8360 O   0  0  0  0  0  0  0  0  0  0  0  0
   10.0070  135.4240   45.4490 C   0  0  0  0  0  0  0  0  0  0  0  0
   11.2300  135.2650   46.0150 N   0  0  0  0  0  0  0  0  0  0  0  0
   11.4230  134.8310   47.3900 C   0  0  0  0  0  0  0  0  0  0  0  0
   10.4900  134.5950   48.1770 O   0  0  0  0  0  0  0  0  0  0  0  0
   12.7660  134.7130   47.8470 N   0  0  0  0  0  0  0  0  0  0  0  0
   13.8810  135.0050   47.0160 C   0  0  0  0  0  0  0  0  0  0  0  0
   15.0180  134.8390   47.4920 O   0  0  0  0  0  0  0  0  0  0  0  0
   12.3720  135.5590   45.1880 C   0  0  0  0  0  0  0  0  0  0  0  0
   13.6950  135.4480   45.6570 C   0  0  0  0  0  0  0  0  0  0  0  0
   14.9030  135.8690   44.7380 C   0  0  0  0  0  0  0  0  0  0  0  0
   15.3760  137.2970   45.0040 C   0  0  0  0  0  0  0  0  0  0  0  0
   14.6280  138.4360   44.5000 C   0  0  0  0  0  0  0  0  0  0  0  0
   15.1000  139.7800   44.7450 C   0  0  0  0  0  0  0  0  0  0  0  0
   16.3190  139.9710   45.4950 C   0  0  0  0  0  0  0  0  0  0  0  0
   17.0540  138.8350   45.9920 C   0  0  0  0  0  0  0  0  0  0  0  0
   16.5920  137.5040   45.7530 C   0  0  0  0  0  0  0  0  0  0  0  0
  1  2  1  0
  2  3  1  0
  3  4  1  0
  4  5  1  0
  5  6  1  0
  6  7  1  0
  7  8  2  0
  7  9  1  0
  9 10  1  0
 10 11  2  0
  6 12  1  0
 10 13  1  0
 12 13  2  0
 13 14  1  0
 14 15  1  0
 15 16  2  0
 16 17  1  0
 17 18  2  0
 18 19  1  0
 15 20  1  0
 19 20  2  0
M  END
$$$$
