7LCU_XTA_A_605
     RDKit          3D

 71 75  0  0  0  0  0  0  0  0999 V2000
  -69.5261  -38.4736  100.4001 C   0  0  0  0  0  0  0  0  0  0  0  0
  -70.8606  -38.3925  100.7943 C   0  0  0  0  0  0  0  0  0  0  0  0
  -71.9960  -36.1984  101.1103 C   0  0  0  0  0  0  0  0  0  0  0  0
  -71.4364  -35.9548  102.3737 C   0  0  0  0  0  0  0  0  0  0  0  0
  -71.7943  -34.8008  103.0822 C   0  0  0  0  0  0  0  0  0  0  0  0
  -71.2152  -34.5532  104.4516 C   0  0  2  0  0  0  0  0  0  0  0  0
  -69.8980  -32.7962  103.4049 C   0  0  1  0  0  0  0  0  0  0  0  0
  -69.6335  -31.2778  103.3906 C   0  0  1  0  0  0  0  0  0  0  0  0
  -69.7745  -30.6405  104.7940 C   0  0  2  0  0  0  0  0  0  0  0  0
  -69.0600  -29.2772  104.8782 C   0  0  2  0  0  0  0  0  0  0  0  0
  -69.9624  -28.1534  104.4653 C   0  0  0  0  0  0  0  0  0  0  0  0
  -69.2362  -31.6054  105.8657 C   0  0  2  0  0  0  0  0  0  0  0  0
  -69.9736  -32.9642  105.8285 C   0  0  1  0  0  0  0  0  0  0  0  0
  -72.6993  -33.8964  102.5113 C   0  0  0  0  0  0  0  0  0  0  0  0
  -73.2245  -34.1524  101.2330 C   0  0  0  0  0  0  0  0  0  0  0  0
  -74.1703  -33.2161  100.5776 C   0  0  0  0  0  0  0  0  0  0  0  0
  -75.1542  -32.5312  101.3171 C   0  0  0  0  0  0  0  0  0  0  0  0
  -76.0122  -31.6251  100.6840 C   0  0  0  0  0  0  0  0  0  0  0  0
  -75.8931  -31.3870   99.3108 C   0  0  0  0  0  0  0  0  0  0  0  0
  -67.1181  -42.5712  105.1763 C   0  0  2  0  0  0  0  0  0  0  0  0
  -66.1345  -42.0415  102.9949 C   0  0  2  0  0  0  0  0  0  0  0  0
  -66.9705  -41.5740  101.7891 C   0  0  2  0  0  0  0  0  0  0  0  0
  -69.0104  -42.6975  102.7765 C   0  0  1  0  0  0  0  0  0  0  0  0
  -67.9487  -43.7240  103.1922 C   0  0  2  0  0  0  0  0  0  0  0  0
  -69.2444  -40.4632  101.6572 C   0  0  0  0  0  0  0  0  0  0  0  0
  -74.9187  -32.0572   98.5687 C   0  0  0  0  0  0  0  0  0  0  0  0
  -74.0590  -32.9637   99.1977 C   0  0  0  0  0  0  0  0  0  0  0  0
  -71.3721  -39.4187  101.6003 C   0  0  0  0  0  0  0  0  0  0  0  0
  -66.7860  -43.0813  103.8341 N   0  0  0  0  0  0  0  0  0  0  0  0
  -68.3988  -41.5342  102.1238 N   0  0  0  0  0  0  0  0  0  0  0  0
  -68.7459  -39.4929  100.8434 N   0  0  0  0  0  0  0  0  0  0  0  0
  -70.7295  -33.1632  104.5677 N   0  0  0  0  0  0  0  0  0  0  0  0
  -72.8597  -35.2924  100.5810 N   0  0  0  0  0  0  0  0  0  0  0  0
  -70.5588  -40.4237  102.0145 N   0  0  0  0  0  0  0  0  0  0  0  0
  -71.6514  -37.3245  100.3485 O   0  0  0  0  0  0  0  0  0  0  0  0
  -70.8733  -28.3398  103.4281 O   0  0  0  0  0  0  0  0  0  0  0  0
  -69.8919  -27.0386  105.0485 O   0  0  0  0  0  0  0  0  0  0  0  0
  -77.2204  -30.7625  101.6192 Cl  0  0  0  0  0  0  0  0  0  0  0  0
  -74.7602  -31.7465   96.8481 Cl  0  0  0  0  0  0  0  0  0  0  0  0
  -69.1017  -37.7136   99.7575 H   0  0  0  0  0  0  0  0  0  0  0  0
  -70.7120  -36.6376  102.7984 H   0  0  0  0  0  0  0  0  0  0  0  0
  -70.3689  -35.2672  104.5726 H   0  0  0  0  0  0  0  0  0  0  0  0
  -71.9524  -34.7841  105.2560 H   0  0  0  0  0  0  0  0  0  0  0  0
  -70.4089  -33.0670  102.4541 H   0  0  0  0  0  0  0  0  0  0  0  0
  -68.9295  -33.3481  103.4343 H   0  0  0  0  0  0  0  0  0  0  0  0
  -68.6128  -31.1009  102.9834 H   0  0  0  0  0  0  0  0  0  0  0  0
  -70.3567  -30.7854  102.7027 H   0  0  0  0  0  0  0  0  0  0  0  0
  -70.8585  -30.4800  105.0023 H   0  0  0  0  0  0  0  0  0  0  0  0
  -68.1455  -29.2845  104.2439 H   0  0  0  0  0  0  0  0  0  0  0  0
  -68.7400  -29.0895  105.9258 H   0  0  0  0  0  0  0  0  0  0  0  0
  -69.3467  -31.1551  106.8775 H   0  0  0  0  0  0  0  0  0  0  0  0
  -68.1489  -31.7743  105.6908 H   0  0  0  0  0  0  0  0  0  0  0  0
  -69.2301  -33.7793  105.9810 H   0  0  0  0  0  0  0  0  0  0  0  0
  -70.6868  -32.9976  106.6816 H   0  0  0  0  0  0  0  0  0  0  0  0
  -72.9975  -33.0156  103.0652 H   0  0  0  0  0  0  0  0  0  0  0  0
  -75.2387  -32.6694  102.3871 H   0  0  0  0  0  0  0  0  0  0  0  0
  -76.5556  -30.6812   98.8255 H   0  0  0  0  0  0  0  0  0  0  0  0
  -66.1897  -42.2626  105.7043 H   0  0  0  0  0  0  0  0  0  0  0  0
  -67.5927  -43.3649  105.7901 H   0  0  0  0  0  0  0  0  0  0  0  0
  -67.7993  -41.6950  105.1192 H   0  0  0  0  0  0  0  0  0  0  0  0
  -65.8582  -41.1462  103.5960 H   0  0  0  0  0  0  0  0  0  0  0  0
  -65.1786  -42.4532  102.6121 H   0  0  0  0  0  0  0  0  0  0  0  0
  -66.8237  -42.2713  100.9366 H   0  0  0  0  0  0  0  0  0  0  0  0
  -66.6001  -40.5754  101.4731 H   0  0  0  0  0  0  0  0  0  0  0  0
  -69.7248  -43.1815  102.0762 H   0  0  0  0  0  0  0  0  0  0  0  0
  -69.5784  -42.3676  103.6736 H   0  0  0  0  0  0  0  0  0  0  0  0
  -67.6036  -44.2785  102.2930 H   0  0  0  0  0  0  0  0  0  0  0  0
  -68.4038  -44.4800  103.8692 H   0  0  0  0  0  0  0  0  0  0  0  0
  -73.3082  -33.4744   98.6064 H   0  0  0  0  0  0  0  0  0  0  0  0
  -72.4145  -39.4248  101.8927 H   0  0  0  0  0  0  0  0  0  0  0  0
  -70.5916  -28.7945  102.5665 H   0  0  0  0  0  0  0  0  0  0  0  0
  1  2  2  0
  3  4  2  0
  4  5  1  0
  5  6  1  0
  7  8  1  0
  8  9  1  0
  9 10  1  0
 10 11  1  0
  9 12  1  0
 12 13  1  0
  5 14  2  0
 14 15  1  0
 15 16  1  0
 16 17  2  0
 17 18  1  0
 18 19  2  0
 21 22  1  0
 23 24  1  0
 19 26  1  0
 26 27  2  0
 16 27  1  0
  2 28  1  0
 21 29  1  0
 24 29  1  0
 20 29  1  0
 25 30  1  0
 22 30  1  0
 23 30  1  0
  1 31  1  0
 25 31  2  0
  7 32  1  0
 13 32  1  0
  6 32  1  0
 15 33  2  0
  3 33  1  0
 28 34  2  0
 25 34  1  0
  3 35  1  0
  2 35  1  0
 11 36  1  0
 11 37  2  0
 18 38  1  0
 26 39  1  0
  1 40  1  0
  4 41  1  0
  6 42  1  1
  6 43  1  0
  7 44  1  6
  7 45  1  0
  8 46  1  6
  8 47  1  0
  9 48  1  1
 10 49  1  6
 10 50  1  0
 12 51  1  1
 12 52  1  0
 13 53  1  1
 13 54  1  0
 14 55  1  0
 17 56  1  0
 19 57  1  0
 20 58  1  1
 20 59  1  0
 20 60  1  0
 21 61  1  1
 21 62  1  0
 22 63  1  6
 22 64  1  0
 23 65  1  6
 23 66  1  0
 24 67  1  6
 24 68  1  0
 27 69  1  0
 28 70  1  0
 36 71  1  0
M  END
