
     RDKit          3D

 33 36  0  0  0  0  0  0  0  0999 V2000
   28.6591  -12.9339   -2.7998 C   0  0  0  0  0  0  0  0  0  0  0  0
   29.7848  -13.7388   -2.2214 C   0  0  0  0  0  0  0  0  0  0  0  0
   29.6417  -14.8582   -1.7455 O   0  0  0  0  0  0  0  0  0  0  0  0
   31.0583  -13.1199   -2.2517 N   0  0  0  0  0  0  0  0  0  0  0  0
   31.4371  -12.0563   -3.0624 C   0  0  0  0  0  0  0  0  0  0  0  0
   32.1659  -13.4687   -1.4738 C   0  0  0  0  0  0  0  0  0  0  0  0
   32.3297  -14.4668   -0.4947 C   0  0  0  0  0  0  0  0  0  0  0  0
   33.5736  -14.6002    0.1302 C   0  0  0  0  0  0  0  0  0  0  0  0
   34.6424  -13.7738   -0.1963 C   0  0  0  0  0  0  0  0  0  0  0  0
   35.7944  -14.0267    0.4980 O   0  0  0  0  0  0  0  0  0  0  0  0
   36.4287  -12.9133    1.1156 C   0  0  0  0  0  0  0  0  0  0  0  0
   34.4729  -12.7833   -1.1668 C   0  0  0  0  0  0  0  0  0  0  0  0
   33.2244  -12.6204   -1.8193 C   0  0  0  0  0  0  0  0  0  0  0  0
   32.7566  -11.7121   -2.8219 C   0  0  0  0  0  0  0  0  0  0  0  0
   33.5363  -10.6517   -3.4789 C   0  0  0  0  0  0  0  0  0  0  0  0
   34.7326  -10.5144   -3.2532 O   0  0  0  0  0  0  0  0  0  0  0  0
   32.7958   -9.8469   -4.3235 N   0  0  0  0  0  0  0  0  0  0  0  0
   33.1517   -8.5906   -4.8659 C   0  0  0  0  0  0  0  0  0  0  0  0
   33.6201   -8.5916   -6.1912 C   0  0  0  0  0  0  0  0  0  0  0  0
   33.6985   -9.7777   -6.8232 F   0  0  0  0  0  0  0  0  0  0  0  0
   33.0804   -7.3812   -4.1744 C   0  0  0  0  0  0  0  0  0  0  0  0
   33.4712   -6.1899   -4.8039 C   0  0  0  0  0  0  0  0  0  0  0  0
   33.4166   -4.8789   -4.1106 C   0  0  0  0  0  0  0  0  0  0  0  0
   33.9452   -4.9160   -2.8775 O   0  0  0  0  0  0  0  0  0  0  0  0
   32.9528   -3.8540   -4.5743 O   0  0  0  0  0  0  0  0  0  0  0  0
   33.9342   -6.2099   -6.1288 C   0  0  0  0  0  0  0  0  0  0  0  0
   34.0123   -7.4134   -6.8408 C   0  0  0  0  0  0  0  0  0  0  0  0
   34.5003   -7.4095   -8.2091 C   0  0  0  0  0  0  0  0  0  0  0  0
   34.0165   -6.6171   -9.2300 C   0  0  0  0  0  0  0  0  0  0  0  0
   35.5532   -8.1357   -8.8158 C   0  0  0  0  0  0  0  0  0  0  0  0
   35.7094   -7.8380  -10.1080 N   0  0  0  0  0  0  0  0  0  0  0  0
   34.7624   -6.9116  -10.3346 N   0  0  0  0  0  0  0  0  0  0  0  0
   34.6311   -6.3377  -11.6515 C   0  0  0  0  0  0  0  0  0  0  0  0
  1  2  1  0
  2  3  2  0
  2  4  1  0
  4  5  4  0
  4  6  4  0
  6  7  4  0
  7  8  4  0
  8  9  4  0
  9 10  1  0
 10 11  1  0
  9 12  4  0
  6 13  4  0
 12 13  4  0
  5 14  4  0
 13 14  4  0
 14 15  1  0
 15 16  2  0
 15 17  1  0
 17 18  1  0
 18 19  4  0
 19 20  1  0
 18 21  4  0
 21 22  4  0
 22 23  1  0
 23 24  1  0
 23 25  2  0
 22 26  4  0
 26 27  4  0
 19 27  4  0
 27 28  1  0
 28 29  4  0
 28 30  4  0
 30 31  4  0
 31 32  4  0
 29 32  4  0
 32 33  1  0
M  END
