1PMN_984_A_501
     RDKit          3D

 33 37  0  0  0  0  0  0  0  0999 V2000
   22.7326   10.9578   31.1718 N   0  0  0  0  0  0  0  0  0  0  0  0
   22.9297   12.2992   31.0805 C   0  0  0  0  0  0  0  0  0  0  0  0
   22.0516   12.9216   31.8836 N   0  0  0  0  0  0  0  0  0  0  0  0
   21.2710   12.0112   32.5097 C   0  0  0  0  0  0  0  0  0  0  0  0
   21.7092   10.7852   32.0539 C   0  0  0  0  0  0  0  0  0  0  0  0
   23.4762    9.9337   30.4617 C   0  0  0  0  0  0  0  0  0  0  0  0
   24.7358    9.6566   31.2205 C   0  0  0  0  0  0  0  0  0  0  0  0
   25.8926    9.2807   30.3324 C   0  0  0  0  0  0  0  0  0  0  0  0
   23.9621   12.8937   30.2147 C   0  0  2  0  0  0  0  0  0  0  0  0
   25.0148   13.6837   30.9603 C   0  0  0  0  0  0  0  0  0  0  0  0
   25.7292   14.6143   30.0048 C   0  0  0  0  0  0  0  0  0  0  0  0
   25.5697   14.0668   28.6680 N   0  0  0  0  0  0  0  0  0  0  0  0
   24.2260   14.4207   28.2472 C   0  0  0  0  0  0  0  0  0  0  0  0
   23.2765   13.8736   29.2642 C   0  0  0  0  0  0  0  0  0  0  0  0
   26.5903   14.5395   27.7650 C   0  0  0  0  0  0  0  0  0  0  0  0
   20.1902   12.2269   33.4648 C   0  0  0  0  0  0  0  0  0  0  0  0
   21.2277    9.4459   32.3925 C   0  0  0  0  0  0  0  0  0  0  0  0
   20.2335   11.5583   34.6788 C   0  0  0  0  0  0  0  0  0  0  0  0
   19.1891   11.7843   35.5686 C   0  0  0  0  0  0  0  0  0  0  0  0
   18.1422   12.6223   35.3000 C   0  0  0  0  0  0  0  0  0  0  0  0
   18.1236   13.2832   34.0695 C   0  0  0  0  0  0  0  0  0  0  0  0
   19.1516   13.0706   33.1750 C   0  0  0  0  0  0  0  0  0  0  0  0
   19.1857   10.9656   37.1255 Cl  0  0  0  0  0  0  0  0  0  0  0  0
   16.8580   12.8596   36.4709 Cl  0  0  0  0  0  0  0  0  0  0  0  0
   19.9677    9.2678   32.9641 C   0  0  0  0  0  0  0  0  0  0  0  0
   19.5701    7.9956   33.2616 C   0  0  0  0  0  0  0  0  0  0  0  0
   20.3629    6.9277   33.0155 N   0  0  0  0  0  0  0  0  0  0  0  0
   21.5828    7.1063   32.4615 C   0  0  0  0  0  0  0  0  0  0  0  0
   21.9754    8.3415   32.1698 N   0  0  0  0  0  0  0  0  0  0  0  0
   22.4249    5.9896   32.2001 N   0  0  0  0  0  0  0  0  0  0  0  0
   23.7044    6.1471   31.5637 C   0  0  1  0  0  0  0  0  0  0  0  0
   24.2184    4.9595   30.7189 C   0  0  0  0  0  0  0  0  0  0  0  0
   23.6798    6.1897   30.0548 C   0  0  0  0  0  0  0  0  0  0  0  0
  1  2  1  0
  2  3  2  0
  3  4  1  0
  1  5  1  0
  4  5  2  0
  6  1  1  1
  6  7  1  0
  7  8  1  6
  9  2  1  1
  9 10  1  0
 10 11  1  6
 11 12  1  6
 13 12  1  6
  9 14  1  0
 14 13  1  6
 15 12  1  6
  4 16  1  0
  5 17  1  0
 16 18  2  0
 18 19  1  0
 19 20  2  0
 20 21  1  0
 16 22  1  0
 21 22  2  0
 19 23  1  0
 20 24  1  0
 17 25  2  0
 25 26  1  0
 26 27  2  0
 27 28  1  0
 17 29  1  0
 28 29  2  0
 28 30  1  0
 31 30  1  1
 32 31  1  1
 31 33  1  0
 33 32  1  6
M  END
$$$$
