1UNL_RRC_A_1293
     RDKit          3D

 26 28  0  0  0  0  0  0  0  0999 V2000
   57.5260   30.7120   29.6960 O   0  0  0  0  0  0  0  0  0  0  0  0
   58.5430   30.4700   30.6370 C   0  0  0  0  0  0  0  0  0  0  0  0
   59.7790   30.0060   29.8600 C   0  0  1  0  0  0  0  0  0  0  0  0
   60.9360   29.9110   30.8560 C   0  0  0  0  0  0  0  0  0  0  0  0
   61.5400   28.5300   31.0020 C   0  0  0  0  0  0  0  0  0  0  0  0
   59.3650   28.7200   29.3170 N   0  0  0  0  0  0  0  0  0  0  0  0
   59.1540   28.4240   28.0090 C   0  0  0  0  0  0  0  0  0  0  0  0
   58.7540   27.1700   27.6870 N   0  0  0  0  0  0  0  0  0  0  0  0
   58.5380   26.8490   26.4000 C   0  0  0  0  0  0  0  0  0  0  0  0
   58.1300   25.6970   25.9200 N   0  0  0  0  0  0  0  0  0  0  0  0
   57.8910   24.6280   26.9030 C   0  0  0  0  0  0  0  0  0  0  0  0
   56.3900   24.3410   26.8940 C   0  0  0  0  0  0  0  0  0  0  0  0
   58.8760   23.5100   26.6870 C   0  0  0  0  0  0  0  0  0  0  0  0
   58.0350   25.8320   24.5670 C   0  0  0  0  0  0  0  0  0  0  0  0
   58.7260   27.7150   25.3830 C   0  0  0  0  0  0  0  0  0  0  0  0
   58.4500   27.0880   24.1650 N   0  0  0  0  0  0  0  0  0  0  0  0
   59.3420   29.3060   27.0100 N   0  0  0  0  0  0  0  0  0  0  0  0
   59.1360   28.9930   25.7240 C   0  0  0  0  0  0  0  0  0  0  0  0
   59.2820   29.8860   24.7360 N   0  0  0  0  0  0  0  0  0  0  0  0
   59.3710   31.3210   24.9960 C   0  0  0  0  0  0  0  0  0  0  0  0
   60.7840   31.8420   25.1170 C   0  0  0  0  0  0  0  0  0  0  0  0
   61.1160   32.7270   26.1490 C   0  0  0  0  0  0  0  0  0  0  0  0
   62.4230   33.2180   26.2560 C   0  0  0  0  0  0  0  0  0  0  0  0
   63.3890   32.8540   25.3140 C   0  0  0  0  0  0  0  0  0  0  0  0
   63.0520   31.9900   24.2700 C   0  0  0  0  0  0  0  0  0  0  0  0
   61.7520   31.4840   24.1730 C   0  0  0  0  0  0  0  0  0  0  0  0
  1  2  1  0
  3  2  1  1
  3  4  1  0
  4  5  1  0
  3  6  1  0
  6  7  1  0
  7  8  2  0
  8  9  1  0
  9 10  1  0
 10 11  1  0
 11 12  1  0
 11 13  1  0
 10 14  1  0
  9 15  2  0
 14 16  2  0
 15 16  1  0
  7 17  1  0
 15 18  1  0
 17 18  2  0
 18 19  1  0
 19 20  1  0
 20 21  1  0
 21 22  2  0
 22 23  1  0
 23 24  2  0
 24 25  1  0
 21 26  1  0
 25 26  2  0
M  END
$$$$
