1UNL_RRC_A_1293
     RDKit          3D

 52 54  0  0  0  0  0  0  0  0999 V2000
   -3.3405    2.7509    0.1620 O   0  0  0  0  0  0  0  0  0  0  0  0
   -2.5029    2.6110    1.2795 C   0  0  0  0  0  0  0  0  0  0  0  0
   -2.6385    1.2097    1.8999 C   0  0  1  0  0  0  0  0  0  0  0  0
   -4.0432    1.0029    2.5039 C   0  0  0  0  0  0  0  0  0  0  0  0
   -4.1300   -0.2896    3.3146 C   0  0  0  0  0  0  0  0  0  0  0  0
   -2.3480    0.1839    0.8903 N   0  0  0  0  0  0  0  0  0  0  0  0
   -1.0127   -0.1514    0.4922 C   0  0  0  0  0  0  0  0  0  0  0  0
    0.0615    0.4652    1.0760 N   0  0  0  0  0  0  0  0  0  0  0  0
    1.3026    0.1137    0.6641 C   0  0  0  0  0  0  0  0  0  0  0  0
    2.4748    0.5906    1.1005 N   0  0  0  0  0  0  0  0  0  0  0  0
    2.7085    1.6048    2.1343 C   0  0  0  0  0  0  0  0  0  0  0  0
    3.4538    2.8053    1.5447 C   0  0  0  0  0  0  0  0  0  0  0  0
    3.4795    0.9981    3.3095 C   0  0  0  0  0  0  0  0  0  0  0  0
    3.3930   -0.0952    0.3679 C   0  0  0  0  0  0  0  0  0  0  0  0
    1.5171   -0.8176   -0.2920 C   0  0  0  0  0  0  0  0  0  0  0  0
    2.8365   -0.9778   -0.5071 N   0  0  0  0  0  0  0  0  0  0  0  0
   -0.8152   -1.1007   -0.4799 N   0  0  0  0  0  0  0  0  0  0  0  0
    0.4392   -1.4566   -0.8946 C   0  0  0  0  0  0  0  0  0  0  0  0
    0.6293   -2.4511   -1.9099 N   0  0  0  0  0  0  0  0  0  0  0  0
   -0.5065   -3.1276   -2.5347 C   0  0  0  0  0  0  0  0  0  0  0  0
   -0.0325   -4.1231   -3.5586 C   0  0  0  0  0  0  0  0  0  0  0  0
    0.1594   -3.7299   -4.8935 C   0  0  0  0  0  0  0  0  0  0  0  0
    0.6362   -4.6470   -5.8356 C   0  0  0  0  0  0  0  0  0  0  0  0
    0.9354   -5.9566   -5.4495 C   0  0  0  0  0  0  0  0  0  0  0  0
    0.7626   -6.3502   -4.1195 C   0  0  0  0  0  0  0  0  0  0  0  0
    0.2856   -5.4363   -3.1744 C   0  0  0  0  0  0  0  0  0  0  0  0
   -4.2170    3.0742    0.4974 H   0  0  0  0  0  0  0  0  0  0  0  0
   -2.7203    3.3949    2.0419 H   0  0  0  0  0  0  0  0  0  0  0  0
   -1.4536    2.7666    0.9512 H   0  0  0  0  0  0  0  0  0  0  0  0
   -1.8996    1.1306    2.7288 H   0  0  0  0  0  0  0  0  0  0  0  0
   -4.2857    1.8519    3.1799 H   0  0  0  0  0  0  0  0  0  0  0  0
   -4.8091    0.9770    1.6985 H   0  0  0  0  0  0  0  0  0  0  0  0
   -5.1465   -0.3855    3.7510 H   0  0  0  0  0  0  0  0  0  0  0  0
   -3.9408   -1.1717    2.6674 H   0  0  0  0  0  0  0  0  0  0  0  0
   -3.3895   -0.2770    4.1424 H   0  0  0  0  0  0  0  0  0  0  0  0
   -3.1381   -0.3207    0.4269 H   0  0  0  0  0  0  0  0  0  0  0  0
    1.7315    1.9702    2.5218 H   0  0  0  0  0  0  0  0  0  0  0  0
    3.5687    3.5989    2.3135 H   0  0  0  0  0  0  0  0  0  0  0  0
    4.4613    2.5067    1.1844 H   0  0  0  0  0  0  0  0  0  0  0  0
    2.8776    3.2236    0.6922 H   0  0  0  0  0  0  0  0  0  0  0  0
    3.5947    1.7492    4.1197 H   0  0  0  0  0  0  0  0  0  0  0  0
    2.9217    0.1274    3.7151 H   0  0  0  0  0  0  0  0  0  0  0  0
    4.4874    0.6599    2.9874 H   0  0  0  0  0  0  0  0  0  0  0  0
    4.4621    0.0411    0.4671 H   0  0  0  0  0  0  0  0  0  0  0  0
    1.6036   -2.6946   -2.2027 H   0  0  0  0  0  0  0  0  0  0  0  0
   -1.1664   -2.3736   -3.0167 H   0  0  0  0  0  0  0  0  0  0  0  0
   -1.1037   -3.6461   -1.7531 H   0  0  0  0  0  0  0  0  0  0  0  0
   -0.0589   -2.7154   -5.2033 H   0  0  0  0  0  0  0  0  0  0  0  0
    0.7775   -4.3412   -6.8642 H   0  0  0  0  0  0  0  0  0  0  0  0
    1.3058   -6.6646   -6.1795 H   0  0  0  0  0  0  0  0  0  0  0  0
    1.0018   -7.3624   -3.8200 H   0  0  0  0  0  0  0  0  0  0  0  0
    0.1656   -5.7507   -2.1450 H   0  0  0  0  0  0  0  0  0  0  0  0
  1  2  1  0
  3  2  1  0
  3  4  1  0
  4  5  1  0
  3  6  1  0
  6  7  1  0
  7  8  2  0
  8  9  1  0
  9 10  1  0
 10 11  1  0
 11 12  1  0
 11 13  1  0
 10 14  1  0
  9 15  2  0
 14 16  2  0
 15 16  1  0
  7 17  1  0
 15 18  1  0
 17 18  2  0
 18 19  1  0
 19 20  1  0
 20 21  1  0
 21 22  2  0
 22 23  1  0
 23 24  2  0
 24 25  1  0
 21 26  1  0
 25 26  2  0
  1 27  1  0
  2 28  1  0
  2 29  1  0
  3 30  1  1
  4 31  1  0
  4 32  1  0
  5 33  1  0
  5 34  1  0
  5 35  1  0
  6 36  1  0
 11 37  1  0
 12 38  1  0
 12 39  1  0
 12 40  1  0
 13 41  1  0
 13 42  1  0
 13 43  1  0
 14 44  1  0
 19 45  1  0
 20 46  1  0
 20 47  1  0
 22 48  1  0
 23 49  1  0
 24 50  1  0
 25 51  1  0
 26 52  1  0
M  END
