7MRH_ZMJ_B_201
     RDKit          3D

 24 26  0  0  0  0  0  0  0  0999 V2000
   -8.7766    4.3856   -8.4723 C   0  0  0  0  0  0  0  0  0  0  0  0
   -7.1765    5.1570   -6.8621 C   0  0  0  0  0  0  0  0  0  0  0  0
   -7.9127    4.4990   -5.8832 C   0  0  0  0  0  0  0  0  0  0  0  0
   -9.4751    3.7480   -7.4658 C   0  0  0  0  0  0  0  0  0  0  0  0
  -11.8118    1.5013   -6.6202 C   0  0  0  0  0  0  0  0  0  0  0  0
  -13.3020    1.1588   -6.6745 C   0  0  0  0  0  0  0  0  0  0  0  0
   -9.8677    3.0686  -10.1807 C   0  0  0  0  0  0  0  0  0  0  0  0
  -10.4067    3.9783  -12.3015 C   0  0  0  0  0  0  0  0  0  0  0  0
   -9.8597    5.2227  -11.9883 C   0  0  0  0  0  0  0  0  0  0  0  0
   -9.8558    6.2670  -12.8873 C   0  0  0  0  0  0  0  0  0  0  0  0
   -9.2921    7.4838  -12.5356 C   0  0  0  0  0  0  0  0  0  0  0  0
   -8.7458    7.5925  -11.2640 C   0  0  0  0  0  0  0  0  0  0  0  0
   -8.7544    6.5416  -10.3706 C   0  0  0  0  0  0  0  0  0  0  0  0
   -9.3165    5.3337  -10.7231 C   0  0  0  0  0  0  0  0  0  0  0  0
   -9.3065    4.2980   -9.8174 C   0  0  0  0  0  0  0  0  0  0  0  0
  -10.9976    1.6900  -11.8406 C   0  0  0  0  0  0  0  0  0  0  0  0
   -7.6317    5.0837   -8.1473 C   0  0  0  0  0  0  0  0  0  0  0  0
   -9.0488    3.7939   -6.1293 C   0  0  0  0  0  0  0  0  0  0  0  0
  -10.3982    2.9562  -11.4134 N   0  0  0  0  0  0  0  0  0  0  0  0
   -9.8528    3.1178   -5.1987 N   0  0  0  0  0  0  0  0  0  0  0  0
  -10.9151    3.8347  -13.4511 O   0  0  0  0  0  0  0  0  0  0  0  0
  -12.3274    3.9349   -5.5632 O   0  0  0  0  0  0  0  0  0  0  0  0
  -11.9142    2.1175   -3.9995 O   0  0  0  0  0  0  0  0  0  0  0  0
  -11.4852    2.6807   -5.3458 S   0  0  1  0  0  6  0  0  0  0  0  0
  2  3  2  0
  1  4  1  0
  5  6  1  6
  8  9  1  0
  9 10  1  0
 10 11  2  0
 11 12  1  0
 12 13  2  0
  9 14  2  0
 13 14  1  0
  7 15  2  0
  1 15  1  0
 14 15  1  0
  1 17  2  0
  2 17  1  0
  4 18  2  0
  3 18  1  0
 16 19  1  1
  7 19  1  0
  8 19  1  0
 18 20  1  0
  8 21  2  0
 22 24  2  0
  5 24  1  0
 23 24  2  0
 24 20  1  1
M  END
$$$$
