7C6P_SQH_A_501
     RDKit          3D

 21 23  0  0  0  0  0  0  0  0999 V2000
    1.4039  -19.3230   -5.8831 C   0  0  0  0  0  0  0  0  0  0  0  0
   -0.8673  -16.1874   -4.0476 C   0  0  0  0  0  0  0  0  0  0  0  0
    0.0949  -16.9475   -3.3805 C   0  0  0  0  0  0  0  0  0  0  0  0
    0.4379  -16.7627   -1.9581 C   0  0  0  0  0  0  0  0  0  0  0  0
   -0.1553  -15.7670   -1.1895 C   0  0  0  0  0  0  0  0  0  0  0  0
    0.2191  -15.6527    0.1376 C   0  0  0  0  0  0  0  0  0  0  0  0
    1.2310  -16.5829    0.6953 C   0  0  0  0  0  0  0  0  0  0  0  0
    1.7919  -17.5602   -0.1075 C   0  0  0  0  0  0  0  0  0  0  0  0
    1.3931  -17.6334   -1.4368 C   0  0  0  0  0  0  0  0  0  0  0  0
    0.6079  -18.2460   -5.2856 C   0  0  0  0  0  0  0  0  0  0  0  0
   -0.3712  -17.5061   -6.1006 C   0  0  0  0  0  0  0  0  0  0  0  0
   -0.5367  -17.8484   -7.4515 C   0  0  0  0  0  0  0  0  0  0  0  0
    0.2284  -18.8809   -8.0308 C   0  0  0  0  0  0  0  0  0  0  0  0
    1.1741  -19.6206   -7.3087 C   0  0  0  0  0  0  0  0  0  0  0  0
   -1.1315  -16.4292   -5.3969 C   0  0  0  0  0  0  0  0  0  0  0  0
    0.7978  -17.9426   -3.9868 O   0  0  0  0  0  0  0  0  0  0  0  0
   -0.3390  -14.6951    0.9241 O   0  0  0  0  0  0  0  0  0  0  0  0
    1.5981  -16.4863    1.9966 O   0  0  0  0  0  0  0  0  0  0  0  0
   -1.9899  -15.7430   -5.9899 O   0  0  0  0  0  0  0  0  0  0  0  0
    1.9038  -20.6170   -7.8641 O   0  0  0  0  0  0  0  0  0  0  0  0
    2.3114  -20.0013   -5.1286 O   0  0  0  0  0  0  0  0  0  0  0  0
  2  3  2  0
  3  4  1  0
  4  5  2  0
  5  6  1  0
  6  7  2  0
  7  8  1  0
  8  9  2  0
  4  9  1  0
  1 10  2  0
 10 11  1  0
 11 12  2  0
 12 13  1  0
  1 14  1  0
 13 14  2  0
  2 15  1  0
 11 15  1  0
  3 16  1  0
 10 16  1  0
  6 17  1  0
  7 18  1  0
 15 19  2  0
 14 20  1  0
  1 21  1  0
M  END
