7TS6_KMI_A_803
     RDKit          3D

 34 35  0  0  0  0  0  0  0  0999 V2000
   -2.3043  -30.6320  -42.6842 C   0  0  0  0  0  0  0  0  0  0  0  0
   -3.3529  -29.8359  -40.6368 C   0  0  0  0  0  0  0  0  0  0  0  0
   -2.7339  -29.5791  -41.8734 C   0  0  0  0  0  0  0  0  0  0  0  0
   -2.4764  -31.9532  -42.2693 C   0  0  0  0  0  0  0  0  0  0  0  0
   -5.4615  -27.0402  -39.3533 C   0  0  0  0  0  0  0  0  0  0  0  0
   -4.7359  -26.5727  -38.2527 C   0  0  0  0  0  0  0  0  0  0  0  0
   -3.5345  -27.2005  -37.9017 C   0  0  0  0  0  0  0  0  0  0  0  0
   -3.0607  -28.2640  -38.6818 C   0  0  0  0  0  0  0  0  0  0  0  0
   -3.8069  -28.7034  -39.7902 C   0  0  0  0  0  0  0  0  0  0  0  0
   -2.7294  -26.6977  -36.7398 C   0  0  1  0  0  0  0  0  0  0  0  0
   -3.0699  -32.2322  -41.0301 C   0  0  0  0  0  0  0  0  0  0  0  0
   -3.5082  -31.1723  -40.2188 C   0  0  0  0  0  0  0  0  0  0  0  0
   -3.2638  -33.6606  -40.5931 C   0  0  2  0  0  0  0  0  0  0  0  0
   -5.6115  -34.1884  -40.8731 C   0  0  1  0  0  0  0  0  0  0  0  0
   -4.9847  -28.0839  -40.0829 N   0  0  0  0  0  0  0  0  0  0  0  0
   -6.6981  -26.4272  -39.7187 N   0  0  0  0  0  0  0  0  0  0  0  0
   -4.2652  -34.3279  -41.4355 N   0  0  0  0  0  0  0  0  0  0  0  0
   -1.8398  -30.4229  -43.6393 H   0  0  0  0  0  0  0  0  0  0  0  0
   -2.5971  -28.5627  -42.2216 H   0  0  0  0  0  0  0  0  0  0  0  0
   -2.1440  -32.7599  -42.9110 H   0  0  0  0  0  0  0  0  0  0  0  0
   -5.1065  -25.7352  -37.6739 H   0  0  0  0  0  0  0  0  0  0  0  0
   -2.1354  -28.7541  -38.4065 H   0  0  0  0  0  0  0  0  0  0  0  0
   -3.1774  -27.0664  -35.7935 H   0  0  0  0  0  0  0  0  0  0  0  0
   -1.6790  -27.0533  -36.8059 H   0  0  0  0  0  0  0  0  0  0  0  0
   -2.7147  -25.5870  -36.7253 H   0  0  0  0  0  0  0  0  0  0  0  0
   -3.9510  -31.3963  -39.2569 H   0  0  0  0  0  0  0  0  0  0  0  0
   -3.5391  -33.7223  -39.5155 H   0  0  0  0  0  0  0  0  0  0  0  0
   -2.2916  -34.1916  -40.6962 H   0  0  0  0  0  0  0  0  0  0  0  0
   -6.3601  -34.6838  -41.5272 H   0  0  0  0  0  0  0  0  0  0  0  0
   -5.6473  -34.6850  -39.8806 H   0  0  0  0  0  0  0  0  0  0  0  0
   -5.8794  -33.1172  -40.7389 H   0  0  0  0  0  0  0  0  0  0  0  0
   -7.2408  -26.7854  -40.5356 H   0  0  0  0  0  0  0  0  0  0  0  0
   -7.0768  -25.6174  -39.1789 H   0  0  0  0  0  0  0  0  0  0  0  0
   -4.0394  -35.3503  -41.4465 H   0  0  0  0  0  0  0  0  0  0  0  0
  2  3  1  0
  1  3  2  0
  1  4  1  0
  5  6  2  0
  6  7  1  0
  7  8  2  0
  8  9  1  0
  2  9  1  0
  7 10  1  0
  4 11  2  0
  2 12  2  0
 11 12  1  0
 11 13  1  0
  9 15  2  0
  5 15  1  0
  5 16  1  0
 13 17  1  0
 14 17  1  0
  1 18  1  0
  3 19  1  0
  4 20  1  0
  6 21  1  0
  8 22  1  0
 10 23  1  1
 10 24  1  0
 10 25  1  0
 12 26  1  0
 13 27  1  1
 13 28  1  0
 14 29  1  6
 14 30  1  0
 14 31  1  0
 16 32  1  0
 16 33  1  0
 17 34  1  0
M  END
