
     RDKit          3D

 29 32  0  0  0  0  0  0  0  0999 V2000
   12.6772   25.4153   -3.5319 C   0  0  0  0  0  0  0  0  0  0  0  0
   11.5756   26.3863   -3.0441 C   0  0  2  0  0  0  0  0  0  0  0  0
   10.3169   26.2601   -3.9216 C   0  0  0  0  0  0  0  0  0  0  0  0
   10.5734   26.7207   -5.3666 C   0  0  0  0  0  0  0  0  0  0  0  0
   11.1741   28.1459   -5.4810 C   0  0  2  0  0  0  0  0  0  0  0  0
   11.5368   28.5693   -6.9638 C   0  0  1  0  0  0  0  0  0  0  0  0
   12.4168   27.4997   -7.6555 C   0  0  0  0  0  0  0  0  0  0  0  0
   10.2088   28.7400   -7.7608 C   0  0  0  0  0  0  0  0  0  0  0  0
   10.3764   29.3875   -9.1352 C   0  0  0  0  0  0  0  0  0  0  0  0
   11.0839   30.7356   -9.0324 C   0  0  2  0  0  0  0  0  0  0  0  0
   11.2972   31.2580  -10.3415 O   0  0  0  0  0  0  0  0  0  0  0  0
   12.4317   30.5981   -8.3237 C   0  0  0  0  0  0  0  0  0  0  0  0
   12.3052   29.8990   -6.9855 C   0  0  0  0  0  0  0  0  0  0  0  0
   12.8508   30.4471   -5.8844 C   0  0  0  0  0  0  0  0  0  0  0  0
   12.8111   29.8454   -4.5170 C   0  0  1  0  0  0  0  0  0  0  0  0
   11.9353   30.6563   -3.7408 O   0  0  0  0  0  0  0  0  0  0  0  0
   12.3733   28.3648   -4.5116 C   0  0  1  0  0  0  0  0  0  0  0  0
   11.9894   27.8781   -3.1063 C   0  0  2  0  0  0  0  0  0  0  0  0
   13.0274   28.0179   -2.0042 C   0  0  0  0  0  0  0  0  0  0  0  0
   12.5269   27.0734   -0.9054 C   0  0  0  0  0  0  0  0  0  0  0  0
   11.3509   26.2447   -1.5047 C   0  0  2  0  0  0  0  0  0  0  0  0
   11.2551   24.8268   -0.8624 C   0  0  2  0  0  0  0  0  0  0  0  0
   10.2581   23.9245   -1.5948 C   0  0  0  0  0  0  0  0  0  0  0  0
   10.8731   24.9496    0.6384 C   0  0  0  0  0  0  0  0  0  0  0  0
   10.5208   23.6496    1.3776 C   0  0  0  0  0  0  0  0  0  0  0  0
   10.9784   23.6334    2.8394 C   0  0  0  0  0  0  0  0  0  0  0  0
   10.5662   22.3560    3.5967 C   0  0  0  0  0  0  0  0  0  0  0  0
    9.4872   22.6197    4.6481 C   0  0  0  0  0  0  0  0  0  0  0  0
   11.7939   21.7327    4.2667 C   0  0  0  0  0  0  0  0  0  0  0  0
  2  1  1  6
  2  3  1  0
  3  4  1  0
  5  4  1  6
  5  6  1  0
  6  7  1  6
  6  8  1  0
  8  9  1  0
  9 10  1  0
 10 11  1  6
 10 12  1  0
 12 13  1  0
  6 13  1  0
 13 14  2  0
 14 15  1  0
 15 16  1  1
 17 15  1  1
  5 17  1  0
 17 18  1  0
  2 18  1  0
 18 19  1  1
 19 20  1  0
 21 20  1  1
  2 21  1  0
 21 22  1  0
 22 23  1  6
 22 24  1  0
 24 25  1  0
 25 26  1  0
 26 27  1  0
 27 28  1  0
 27 29  1  0
M  END
