7N7B_T3F_A_302
     RDKit          3D

 35 37  0  0  0  0  0  0  0  0999 V2000
   17.4899   -3.4105   30.9869 O   0  0  0  0  0  0  0  0  0  0  0  0
   17.5398   -1.7781   30.5542 P   0  0  2  0  0  5  0  0  0  0  0  0
   16.1625   -1.1540   30.7964 O   0  0  0  0  0  0  0  0  0  0  0  0
   17.8481   -1.6651   28.9139 O   0  0  0  0  0  0  0  0  0  0  0  0
   16.6574   -1.5249   28.2002 C   0  0  1  0  0  0  0  0  0  0  0  0
   16.7129   -0.3767   27.4783 O   0  0  0  0  0  0  0  0  0  0  0  0
   17.2557   -0.4043   26.2387 C   0  0  2  0  0  0  0  0  0  0  0  0
   16.4032    0.4555   25.3215 C   0  0  0  0  0  0  0  0  0  0  0  0
   16.3853   -2.7676   27.3962 C   0  0  2  0  0  0  0  0  0  0  0  0
   16.2540   -3.8346   28.2558 O   0  0  0  0  0  0  0  0  0  0  0  0
   17.6148   -2.8920   26.4897 C   0  0  1  0  0  0  0  0  0  0  0  0
   17.6115   -4.0955   25.7111 N   0  0  0  0  0  0  0  0  0  0  0  0
   17.5592   -1.6960   25.5941 C   0  0  1  0  0  0  0  0  0  0  0  0
   16.5878   -1.9676   24.6059 O   0  0  0  0  0  0  0  0  0  0  0  0
   18.6167   -0.8841   31.4845 O   0  0  0  0  0  0  0  0  0  0  0  0
   19.4483    0.2844   30.6108 P   0  0  1  0  0  5  0  0  0  0  0  0
   20.4658    1.2195   31.5591 O   0  0  0  0  0  0  0  0  0  0  0  0
   20.2712   -0.3487   29.5112 O   0  0  0  0  0  0  0  0  0  0  0  0
   18.2591    1.3087   29.9321 O   0  0  0  0  0  0  0  0  0  0  0  0
   18.3259    1.2985   28.5482 C   0  0  0  0  0  0  0  0  0  0  0  0
   19.3882    2.2856   28.1114 C   0  0  1  0  0  0  0  0  0  0  0  0
   20.2928    2.5686   29.1286 O   0  0  0  0  0  0  0  0  0  0  0  0
   20.2166    1.6949   26.9757 C   0  0  1  0  0  0  0  0  0  0  0  0
   19.8991    2.3649   25.7768 O   0  0  0  0  0  0  0  0  0  0  0  0
   21.6334    2.1358   27.3658 C   0  0  0  0  0  0  0  0  0  0  0  0
   21.3197    3.1821   28.4163 C   0  0  2  0  0  0  0  0  0  0  0  0
   22.4399    3.5783   29.2048 N   0  0  0  0  0  0  0  0  0  0  0  0
   23.2604    4.5695   28.7854 C   0  0  0  0  0  0  0  0  0  0  0  0
   22.9775    5.1130   27.6712 O   0  0  0  0  0  0  0  0  0  0  0  0
   24.3263    4.9839   29.4824 N   0  0  0  0  0  0  0  0  0  0  0  0
   22.7278    2.9899   30.3890 C   0  0  0  0  0  0  0  0  0  0  0  0
   23.8190    3.3951   31.1296 C   0  0  0  0  0  0  0  0  0  0  0  0
   24.1751    2.7740   32.4427 C   0  0  0  0  0  0  0  0  0  0  0  0
   24.6287    4.4115   30.6615 C   0  0  0  0  0  0  0  0  0  0  0  0
   25.6376    4.7883   31.3431 O   0  0  0  0  0  0  0  0  0  0  0  0
  2  1  1  1
  2  3  2  0
  2  4  1  0
  5  4  1  6
  5  6  1  0
  7  6  1  1
  8  7  1  1
  5  9  1  0
  9 10  1  1
  9 11  1  0
 11 12  1  6
  7 13  1  0
 11 13  1  0
 13 14  1  6
  2 15  1  0
 16 15  1  0
 16 17  1  1
 16 18  2  0
 16 19  1  0
 20 19  1  6
 21 20  1  0
 21 22  1  1
 21 23  1  0
 23 24  1  6
 23 25  1  0
 22 26  1  0
 25 26  1  1
 26 27  1  1
 27 28  1  0
 28 29  2  0
 28 30  1  0
 27 31  1  0
 31 32  2  0
 33 32  1  1
 30 34  1  0
 32 34  1  0
 34 35  2  0
M  END
$$$$
