7L03_F9F_A_301
     RDKit          3D

 22 22  0  0  0  0  0  0  0  0999 V2000
  -39.3618   -7.3202   14.2344 C   0  0  0  0  0  0  0  0  0  0  0  0
  -39.0814   -6.2102   13.4659 C   0  0  0  0  0  0  0  0  0  0  0  0
  -39.9294   -5.1230   13.4731 C   0  0  0  0  0  0  0  0  0  0  0  0
  -41.0747   -5.1651   14.2704 C   0  0  0  0  0  0  0  0  0  0  0  0
  -41.3316   -6.2913   15.0315 C   0  0  0  0  0  0  0  0  0  0  0  0
  -40.4987   -7.3940   15.0425 C   0  0  0  0  0  0  0  0  0  0  0  0
  -38.4684   -8.3856   14.1851 O   0  0  0  0  0  0  0  0  0  0  0  0
  -38.7597   -9.6482   14.7475 C   0  0  1  0  0  0  0  0  0  0  0  0
  -39.1987   -9.5491   16.0452 F   0  0  0  0  0  0  0  0  0  0  0  0
  -39.8170  -10.1801   14.0095 F   0  0  0  0  0  0  0  0  0  0  0  0
  -37.7195  -10.5358   14.6713 F   0  0  0  0  0  0  0  0  0  0  0  0
  -42.1970   -3.8181   14.3277 S   0  0  2  0  0  0  0  0  0  0  0  0
  -41.4344   -2.3157   13.9616 N   0  0  0  0  0  0  0  0  0  0  0  0
  -42.3951   -1.2601   13.8620 C   0  0  0  0  0  0  0  0  0  0  0  0
  -42.4341   -0.6220   12.4926 C   0  0  0  0  0  0  0  0  0  0  0  0
  -41.7516   -1.4525   11.6026 O   0  0  0  0  0  0  0  0  0  0  0  0
  -41.5320   -0.6802   10.1113 P   0  0  2  0  0  0  0  0  0  0  0  0
  -40.2159    0.3715   10.2336 O   0  0  0  0  0  0  0  0  0  0  0  0
  -42.7827    0.1125    9.8173 O   0  0  0  0  0  0  0  0  0  0  0  0
  -41.2624   -1.7810    8.8759 O   0  0  0  0  0  0  0  0  0  0  0  0
  -42.8913   -3.7855   15.6372 O   0  0  0  0  0  0  0  0  0  0  0  0
  -43.2423   -4.0399   13.2622 O   0  0  0  0  0  0  0  0  0  0  0  0
  1  2  2  0
  2  3  1  0
  3  4  2  0
  4  5  1  0
  1  6  1  0
  5  6  2  0
  1  7  1  0
  7  8  1  0
  8  9  1  1
  8 10  1  0
  8 11  1  0
  4 12  1  0
 12 13  1  6
 13 14  1  0
 14 15  1  0
 15 16  1  0
 16 17  1  0
 17 18  1  1
 17 19  2  0
 17 20  1  0
 12 21  2  0
 12 22  2  0
M  END
$$$$
