6VTA_AKN_B_302
     RDKit          3D

 83 85  0  0  0  0  0  0  0  0999 V2000
  114.6329    6.6522   31.9669 C   0  0  1  0  0  0  0  0  0  0  0  0
  114.4767    8.0366   32.6400 C   0  0  1  0  0  0  0  0  0  0  0  0
  114.2287    7.9047   34.1661 C   0  0  2  0  0  0  0  0  0  0  0  0
  113.6906    6.5017   34.5120 C   0  0  1  0  0  0  0  0  0  0  0  0
  114.6747    5.4169   33.9753 C   0  0  1  0  0  0  0  0  0  0  0  0
  113.9617    4.0674   33.7488 C   0  0  1  0  0  0  0  0  0  0  0  0
  113.5557    6.3633   35.9056 O   0  0  0  0  0  0  0  0  0  0  0  0
  115.2879    6.8063   30.7226 O   0  0  0  0  0  0  0  0  0  0  0  0
  115.3948    5.8027   32.8074 O   0  0  0  0  0  0  0  0  0  0  0  0
  113.9320    3.7031   32.3338 N   0  0  0  0  0  0  0  0  0  0  0  0
  115.9605    7.8334   27.3611 C   0  0  2  0  0  0  0  0  0  0  0  0
  115.1898    7.7276   26.1146 N   0  0  0  0  0  0  0  0  0  0  0  0
  116.2824    6.4433   27.9475 C   0  0  1  0  0  0  0  0  0  0  0  0
  115.0565    5.7444   28.5578 C   0  0  2  0  0  0  0  0  0  0  0  0
  114.0962    5.3776   27.5150 N   0  0  0  0  0  0  0  0  0  0  0  0
  114.3934    6.6381   29.6309 C   0  0  2  0  0  0  0  0  0  0  0  0
  114.0348    8.0323   29.0723 C   0  0  2  0  0  0  0  0  0  0  0  0
  112.9717    7.9378   28.1602 O   0  0  0  0  0  0  0  0  0  0  0  0
  115.2423    8.7335   28.4062 C   0  0  1  0  0  0  0  0  0  0  0  0
  116.1651    9.0992   29.4198 O   0  0  0  0  0  0  0  0  0  0  0  0
  117.5051    9.0838   28.9584 C   0  0  2  0  0  0  0  0  0  0  0  0
  118.1003    7.6891   29.2551 C   0  0  2  0  0  0  0  0  0  0  0  0
  117.9066    7.2734   30.5906 O   0  0  0  0  0  0  0  0  0  0  0  0
  119.5915    7.6323   28.8658 C   0  0  1  0  0  0  0  0  0  0  0  0
  119.7216    7.5286   27.4066 N   0  0  0  0  0  0  0  0  0  0  0  0
  120.3634    8.8745   29.3823 C   0  0  2  0  0  0  0  0  0  0  0  0
  120.7447    8.6883   30.7272 O   0  0  0  0  0  0  0  0  0  0  0  0
  119.5719   10.2040   29.1996 C   0  0  2  0  0  0  0  0  0  0  0  0
  118.2234   10.1043   29.6320 O   0  0  0  0  0  0  0  0  0  0  0  0
  119.7047   10.8152   27.7915 C   0  0  2  0  0  0  0  0  0  0  0  0
  120.9903   10.5716   27.2873 O   0  0  0  0  0  0  0  0  0  0  0  0
  115.5972    8.8522   32.3994 O   0  0  0  0  0  0  0  0  0  0  0  0
  113.3110    8.8898   34.5720 O   0  0  0  0  0  0  0  0  0  0  0  0
  113.5921   12.5451   24.1795 N   0  0  0  0  0  0  0  0  0  0  0  0
  115.6024    8.3756   24.9015 C   0  0  0  0  0  0  0  0  0  0  0  0
  116.1111    7.7053   23.9611 O   0  0  0  0  0  0  0  0  0  0  0  0
  115.5214    9.8755   24.7741 C   0  0  2  0  0  0  0  0  0  0  0  0
  114.1408   10.3894   25.2204 C   0  0  1  0  0  0  0  0  0  0  0  0
  114.1097   11.9153   25.3891 C   0  0  1  0  0  0  0  0  0  0  0  0
  115.7388   10.2562   23.4404 O   0  0  0  0  0  0  0  0  0  0  0  0
  113.6042    6.2419   31.7948 H   0  0  0  0  0  0  0  0  0  0  0  0
  113.5978    8.5322   32.1736 H   0  0  0  0  0  0  0  0  0  0  0  0
  115.1979    8.0446   34.7051 H   0  0  0  0  0  0  0  0  0  0  0  0
  112.6943    6.3723   34.0213 H   0  0  0  0  0  0  0  0  0  0  0  0
  115.4379    5.2525   34.7696 H   0  0  0  0  0  0  0  0  0  0  0  0
  114.4891    3.2684   34.3095 H   0  0  0  0  0  0  0  0  0  0  0  0
  112.9207    4.1127   34.1317 H   0  0  0  0  0  0  0  0  0  0  0  0
  112.7072    6.8106   36.1618 H   0  0  0  0  0  0  0  0  0  0  0  0
  113.9417    4.5752   31.7558 H   0  0  0  0  0  0  0  0  0  0  0  0
  114.7905    3.1502   32.1021 H   0  0  0  0  0  0  0  0  0  0  0  0
  116.9299    8.3161   27.1101 H   0  0  0  0  0  0  0  0  0  0  0  0
  114.2339    7.3073   26.1351 H   0  0  0  0  0  0  0  0  0  0  0  0
  116.7363    5.7894   27.1745 H   0  0  0  0  0  0  0  0  0  0  0  0
  117.0591    6.5640   28.7352 H   0  0  0  0  0  0  0  0  0  0  0  0
  115.4085    4.8108   29.0520 H   0  0  0  0  0  0  0  0  0  0  0  0
  113.6538    4.4689   27.7832 H   0  0  0  0  0  0  0  0  0  0  0  0
  114.6187    5.1904   26.6274 H   0  0  0  0  0  0  0  0  0  0  0  0
  113.4344    6.1465   29.9280 H   0  0  0  0  0  0  0  0  0  0  0  0
  113.7079    8.6749   29.9267 H   0  0  0  0  0  0  0  0  0  0  0  0
  112.1502    7.7572   28.6888 H   0  0  0  0  0  0  0  0  0  0  0  0
  114.8289    9.6341   27.8900 H   0  0  0  0  0  0  0  0  0  0  0  0
  117.5590    9.2275   27.8521 H   0  0  0  0  0  0  0  0  0  0  0  0
  117.5457    6.9579   28.6233 H   0  0  0  0  0  0  0  0  0  0  0  0
  116.9392    7.1430   30.7585 H   0  0  0  0  0  0  0  0  0  0  0  0
  120.0381    6.7155   29.3181 H   0  0  0  0  0  0  0  0  0  0  0  0
  118.7680    7.4165   26.9926 H   0  0  0  0  0  0  0  0  0  0  0  0
  120.2287    6.6407   27.1801 H   0  0  0  0  0  0  0  0  0  0  0  0
  121.3121    8.9606   28.8112 H   0  0  0  0  0  0  0  0  0  0  0  0
  119.9259    8.6396   31.2831 H   0  0  0  0  0  0  0  0  0  0  0  0
  120.0535   10.9463   29.8716 H   0  0  0  0  0  0  0  0  0  0  0  0
  119.5176   11.9072   27.8005 H   0  0  0  0  0  0  0  0  0  0  0  0
  118.9406   10.3569   27.1227 H   0  0  0  0  0  0  0  0  0  0  0  0
  121.5218   11.3891   27.4674 H   0  0  0  0  0  0  0  0  0  0  0  0
  116.0533    8.9988   33.2690 H   0  0  0  0  0  0  0  0  0  0  0  0
  113.6532    9.7607   34.2401 H   0  0  0  0  0  0  0  0  0  0  0  0
  113.0112   13.3654   24.4746 H   0  0  0  0  0  0  0  0  0  0  0  0
  112.9401   11.8692   23.7176 H   0  0  0  0  0  0  0  0  0  0  0  0
  116.2986   10.3490   25.4182 H   0  0  0  0  0  0  0  0  0  0  0  0
  113.3895   10.1014   24.4509 H   0  0  0  0  0  0  0  0  0  0  0  0
  113.8456    9.9076   26.1779 H   0  0  0  0  0  0  0  0  0  0  0  0
  115.1400   12.2865   25.5807 H   0  0  0  0  0  0  0  0  0  0  0  0
  113.4683   12.1960   26.2528 H   0  0  0  0  0  0  0  0  0  0  0  0
  114.8843   10.6430   23.1109 H   0  0  0  0  0  0  0  0  0  0  0  0
  1  2  1  0
  2  3  1  0
  3  4  1  0
  4  5  1  0
  5  6  1  0
  4  7  1  0
  1  8  1  0
  5  9  1  0
  1  9  1  0
  6 10  1  0
 11 12  1  0
 11 13  1  0
 13 14  1  0
 14 15  1  0
 14 16  1  0
 16  8  1  0
 16 17  1  0
 17 18  1  0
 11 19  1  0
 17 19  1  0
 19 20  1  0
 21 20  1  0
 21 22  1  0
 22 23  1  0
 22 24  1  0
 24 25  1  0
 24 26  1  0
 26 27  1  0
 26 28  1  0
 21 29  1  0
 28 29  1  0
 28 30  1  0
 30 31  1  0
  2 32  1  0
  3 33  1  0
 12 35  1  0
 35 36  2  0
 35 37  1  0
 37 38  1  0
 38 39  1  0
 34 39  1  0
 37 40  1  0
  1 41  1  6
  2 42  1  6
  3 43  1  1
  4 44  1  6
  5 45  1  1
  6 46  1  1
  6 47  1  0
  7 48  1  0
 10 49  1  0
 10 50  1  0
 11 51  1  6
 12 52  1  0
 13 53  1  6
 13 54  1  0
 14 55  1  1
 15 56  1  0
 15 57  1  0
 16 58  1  1
 17 59  1  1
 18 60  1  0
 19 61  1  6
 21 62  1  6
 22 63  1  6
 23 64  1  0
 24 65  1  1
 25 66  1  0
 25 67  1  0
 26 68  1  6
 27 69  1  0
 28 70  1  1
 30 71  1  1
 30 72  1  0
 31 73  1  0
 32 74  1  0
 33 75  1  0
 34 76  1  0
 34 77  1  0
 37 78  1  1
 38 79  1  6
 38 80  1  0
 39 81  1  1
 39 82  1  0
 40 83  1  0
M  END
