7TSF_H4B_A_802
     RDKit          3D

 17 18  0  0  0  0  0  0  0  0999 V2000
   15.6145    2.9587   48.2675 N   0  0  0  0  0  0  0  0  0  0  0  0
   14.8824    2.9288   47.1185 C   0  0  0  0  0  0  0  0  0  0  0  0
   15.3860    3.6223   45.9815 N   0  0  0  0  0  0  0  0  0  0  0  0
   13.7158    2.2522   47.0891 N   0  0  0  0  0  0  0  0  0  0  0  0
   13.2527    1.6005   48.1748 C   0  0  0  0  0  0  0  0  0  0  0  0
   12.1657    0.9846   48.1059 O   0  0  0  0  0  0  0  0  0  0  0  0
   13.9644    1.6084   49.3521 C   0  0  0  0  0  0  0  0  0  0  0  0
   15.1590    2.3078   49.3635 C   0  0  0  0  0  0  0  0  0  0  0  0
   13.5096    0.9337   50.5178 N   0  0  0  0  0  0  0  0  0  0  0  0
   15.9200    2.3358   50.5666 N   0  0  0  0  0  0  0  0  0  0  0  0
   14.4652    0.7277   51.5891 C   0  0  2  0  0  0  0  0  0  0  0  0
   15.2534    1.9991   51.8036 C   0  0  0  0  0  0  0  0  0  0  0  0
   15.4406   -0.3807   51.2995 C   0  0  1  0  0  0  0  0  0  0  0  0
   16.6070   -0.2618   52.0703 O   0  0  0  0  0  0  0  0  0  0  0  0
   14.8728   -1.7427   51.6411 C   0  0  2  0  0  0  0  0  0  0  0  0
   13.9644   -2.2519   50.5364 C   0  0  0  0  0  0  0  0  0  0  0  0
   14.0630   -1.5898   52.7651 O   0  0  0  0  0  0  0  0  0  0  0  0
  1  2  2  0
  2  3  1  0
  2  4  1  0
  4  5  1  0
  5  6  2  0
  5  7  1  0
  1  8  1  0
  7  8  2  0
  7  9  1  0
  8 10  1  0
  9 11  1  0
 10 12  1  0
 11 12  1  6
 11 13  1  0
 13 14  1  1
 13 15  1  0
 15 16  1  6
 15 17  1  0
M  END
$$$$
