7V8Z_5YH_A_601
     RDKit          3D

 42 45  0  0  0  0  0  0  0  0999 V2000
    3.1808   -1.7418    1.6057 C   0  0  0  0  0  0  0  0  0  0  0  0
    3.7701   -0.7677   -1.2961 C   0  0  0  0  0  0  0  0  0  0  0  0
    2.8218   -0.7823   -3.5533 C   0  0  0  0  0  0  0  0  0  0  0  0
    1.7063   -1.5076   -3.1008 C   0  0  0  0  0  0  0  0  0  0  0  0
    1.1911   -2.5918    0.2755 C   0  0  0  0  0  0  0  0  0  0  0  0
    0.4735   -3.2691    1.2692 C   0  0  0  0  0  0  0  0  0  0  0  0
   -0.7323   -3.8966    0.9076 C   0  0  0  0  0  0  0  0  0  0  0  0
   -0.4611   -3.1721   -1.4112 C   0  0  0  0  0  0  0  0  0  0  0  0
    4.6931   -1.6403    1.3030 C   0  0  2  0  0  0  0  0  0  0  0  0
    5.0381   -1.7447   -0.2026 C   0  0  0  0  0  0  0  0  0  0  0  0
    3.9867   -0.4432   -2.1866 C   0  0  0  0  0  0  0  0  0  0  0  0
    2.7191   -0.6913   -3.0413 C   0  0  0  0  0  0  0  0  0  0  0  0
    2.7595   -2.1775   -1.2680 C   0  0  0  0  0  0  0  0  0  0  0  0
    2.6407   -1.4678   -0.8576 C   0  0  0  0  0  0  0  0  0  0  0  0
    3.8498   -0.4193   -2.6566 C   0  0  0  0  0  0  0  0  0  0  0  0
    1.6514   -1.8374   -1.7479 C   0  0  0  0  0  0  0  0  0  0  0  0
    0.7283   -2.5566   -1.0265 C   0  0  0  0  0  0  0  0  0  0  0  0
   -1.1981   -3.8477   -0.4239 C   0  0  0  0  0  0  0  0  0  0  0  0
    2.9173   -0.4413   -4.8619 F   0  0  0  0  0  0  0  0  0  0  0  0
   -2.3624   -4.4589   -0.7533 F   0  0  0  0  0  0  0  0  0  0  0  0
    3.9108   -1.3799   -1.0674 N   0  0  0  0  0  0  0  0  0  0  0  0
    2.0195   -1.7946   -2.4017 N   0  0  0  0  0  0  0  0  0  0  0  0
    2.3623   -1.9109    0.3969 N   0  0  0  0  0  4  0  0  0  0  0  0
    5.4121   -2.5887    2.0485 O   0  0  0  0  0  0  0  0  0  0  0  0
    2.4469   -3.1557   -0.5385 O   0  0  0  0  0  0  0  0  0  0  0  0
    2.8594   -0.8403    2.1671 H   0  0  0  0  0  0  0  0  0  0  0  0
    3.0033   -2.5979    2.2917 H   0  0  0  0  0  0  0  0  0  0  0  0
    4.5756   -0.5090   -0.6245 H   0  0  0  0  0  0  0  0  0  0  0  0
    0.9213   -1.8047   -3.7840 H   0  0  0  0  0  0  0  0  0  0  0  0
    0.8180   -3.3182    2.2920 H   0  0  0  0  0  0  0  0  0  0  0  0
   -1.3072   -4.4227    1.6586 H   0  0  0  0  0  0  0  0  0  0  0  0
   -0.8090   -3.1320   -2.4352 H   0  0  0  0  0  0  0  0  0  0  0  0
    5.0050   -0.6176    1.6248 H   0  0  0  0  0  0  0  0  0  0  0  0
    5.9224   -1.1213   -0.4456 H   0  0  0  0  0  0  0  0  0  0  0  0
    5.3320   -2.7922   -0.4338 H   0  0  0  0  0  0  0  0  0  0  0  0
    4.9021   -0.6374   -2.7865 H   0  0  0  0  0  0  0  0  0  0  0  0
    3.9926    0.5978   -1.8134 H   0  0  0  0  0  0  0  0  0  0  0  0
    2.9931   -0.9712   -4.0810 H   0  0  0  0  0  0  0  0  0  0  0  0
    2.0678    0.2089   -3.0518 H   0  0  0  0  0  0  0  0  0  0  0  0
    4.7115    0.1258   -3.0193 H   0  0  0  0  0  0  0  0  0  0  0  0
    1.1366   -2.2392   -2.7377 H   0  0  0  0  0  0  0  0  0  0  0  0
    5.5029   -2.2277    2.9692 H   0  0  0  0  0  0  0  0  0  0  0  0
  3  4  4  0
  5  6  4  0
  6  7  4  0
  1  9  1  0
  9 10  1  0
 11 12  1  0
  2 14  4  0
  2 15  4  0
  3 15  4  0
 14 16  4  0
  4 16  4  0
  5 17  4  0
 16 17  4  0
  8 17  4  0
  7 18  4  0
  8 18  4  0
  3 19  1  0
 18 20  1  0
 13 21  1  0
 11 21  1  0
 10 21  1  0
 13 22  1  0
 12 22  1  0
  1 23  1  0
 14 23  4  0
  5 23  4  0
  9 24  1  0
 13 25  2  0
  1 26  1  0
  1 27  1  0
  2 28  1  0
  4 29  1  0
  6 30  1  0
  7 31  1  0
  8 32  1  0
  9 33  1  1
 10 34  1  0
 10 35  1  0
 11 36  1  0
 11 37  1  0
 12 38  1  0
 12 39  1  0
 15 40  1  0
 22 41  1  0
 24 42  1  0
M  CHG  1  23   1
M  END
