@<TRIPOS>MOLECULE
1R9O_FLP_A_501
 31 32 0 0 0
SMALL
GASTEIGER

@<TRIPOS>ATOM
      1 C          -0.0705    3.8910    1.7650 C.ar    1  UNL1       -0.0612
      2 C           0.0286    2.8648    0.8203 C.ar    1  UNL1       -0.0539
      3 C          -0.3386    1.5492    1.1580 C.ar    1  UNL1       -0.0151
      4 C          -0.7967    1.2813    2.4611 C.ar    1  UNL1       -0.0539
      5 C          -0.8947    2.3112    3.4018 C.ar    1  UNL1       -0.0612
      6 C          -0.5329    3.6149    3.0539 C.ar    1  UNL1       -0.0617
      7 C          -0.2282    0.4549    0.1627 C.ar    1  UNL1        0.0173
      8 C           0.3703   -0.7638    0.5234 C.ar    1  UNL1       -0.0510
      9 C           0.4864   -1.8008   -0.4052 C.ar    1  UNL1       -0.0570
     10 C           0.0042   -1.6427   -1.7167 C.ar    1  UNL1       -0.0312
     11 C          -0.6029   -0.4275   -2.0748 C.ar    1  UNL1       -0.0219
     12 C          -0.7194    0.6125   -1.1473 C.ar    1  UNL1        0.1313
     13 C           0.1180   -2.7626   -2.7317 C.3     1  UNL1        0.0785
     14 C          -0.7178   -3.9775   -2.3114 C.3     1  UNL1       -0.0482
     15 C           1.5600   -3.1324   -2.9538 C.2     1  UNL1        0.3119
     16 O           2.2172   -2.5648   -3.8671 O.2     1  UNL1       -0.2503
     17 O           2.1887   -4.0608   -2.1276 O.3     1  UNL1       -0.4802
     18 F          -1.3454    1.7574   -1.5215 F       1  UNL1       -0.2048
     19 H           0.2158    4.9002    1.4986 H       1  UNL1        0.0618
     20 H           0.4082    3.0948   -0.1674 H       1  UNL1        0.0624
     21 H          -1.0912    0.2788    2.7458 H       1  UNL1        0.0624
     22 H          -1.2529    2.0985    4.4008 H       1  UNL1        0.0618
     23 H          -0.6086    4.4106    3.7837 H       1  UNL1        0.0618
     24 H           0.7628   -0.9087    1.5224 H       1  UNL1        0.0625
     25 H           0.9561   -2.7267   -0.0994 H       1  UNL1        0.0621
     26 H          -0.9943   -0.2843   -3.0744 H       1  UNL1        0.0649
     27 H          -0.2913   -2.4210   -3.7092 H       1  UNL1        0.0459
     28 H          -1.7832   -3.6830   -2.1990 H       1  UNL1        0.0241
     29 H          -0.3626   -4.3991   -1.3471 H       1  UNL1        0.0241
     30 H          -0.6561   -4.7685   -3.0893 H       1  UNL1        0.0241
     31 H           3.1641   -4.2991   -2.2614 H       1  UNL1        0.2951
@<TRIPOS>BOND
     1     1     2   ar
     2     2     3   ar
     3     3     4   ar
     4     4     5   ar
     5     1     6   ar
     6     5     6   ar
     7     3     7    1
     8     7     8   ar
     9     8     9   ar
    10     9    10   ar
    11    10    11   ar
    12     7    12   ar
    13    11    12   ar
    14    10    13    1
    15    13    14    1
    16    13    15    1
    17    15    16    2
    18    15    17    1
    19    12    18    1
    20     1    19    1
    21     2    20    1
    22     4    21    1
    23     5    22    1
    24     6    23    1
    25     8    24    1
    26     9    25    1
    27    11    26    1
    28    13    27    1
    29    14    28    1
    30    14    29    1
    31    14    30    1
    32    17    31    1
