7RWO_7WN_A_3001
     RDKit          3D

 35 37  0  0  0  0  0  0  0  0999 V2000
    6.6807    1.9383   -2.2243 N   0  0  0  0  0  0  0  0  0  0  0  0
    7.7405    2.8140   -1.7096 C   0  0  1  0  0  0  0  0  0  0  0  0
    8.6718    2.0483   -0.7620 C   0  0  1  0  0  0  0  0  0  0  0  0
    7.8998    1.2317    0.2413 C   0  0  0  0  0  0  0  0  0  0  0  0
    8.5652    0.7018    1.3554 C   0  0  0  0  0  0  0  0  0  0  0  0
    7.8825   -0.0995    2.2727 C   0  0  0  0  0  0  0  0  0  0  0  0
    6.1007   -2.3066    5.1805 C   0  0  0  0  0  0  0  0  0  0  0  0
    6.0408    0.0956    6.5246 C   0  0  0  0  0  0  0  0  0  0  0  0
    5.8893    0.0913    5.1318 C   0  0  0  0  0  0  0  0  0  0  0  0
    5.9432   -1.1325    4.4454 C   0  0  0  0  0  0  0  0  0  0  0  0
    6.5173   -0.3829    2.0916 C   0  0  0  0  0  0  0  0  0  0  0  0
    5.8585    0.1238    0.9623 C   0  0  0  0  0  0  0  0  0  0  0  0
    6.5420    0.9169    0.0280 C   0  0  0  0  0  0  0  0  0  0  0  0
    5.7867    1.5097   -1.1394 C   0  0  1  0  0  0  0  0  0  0  0  0
    6.3849   -1.1073    8.6454 C   0  0  1  0  0  0  0  0  0  0  0  0
    5.7913   -1.2087    3.0202 N   0  0  0  0  0  0  0  0  0  0  0  0
    6.2436   -2.2452    6.5282 N   0  0  0  0  0  0  0  0  0  0  0  0
    6.2248   -1.0857    7.1914 N   0  0  0  0  0  0  0  0  0  0  0  0
    6.0004    1.1872    7.1571 O   0  0  0  0  0  0  0  0  0  0  0  0
    5.5664    1.6021    4.2805 Cl  0  0  0  0  0  0  0  0  0  0  0  0
    7.1167    1.0909   -2.6600 H   0  0  0  0  0  0  0  0  0  0  0  0
    8.3323    3.2108   -2.5620 H   0  0  0  0  0  0  0  0  0  0  0  0
    7.2926    3.6851   -1.1810 H   0  0  0  0  0  0  0  0  0  0  0  0
    9.3153    1.3638   -1.3561 H   0  0  0  0  0  0  0  0  0  0  0  0
    9.3292    2.7746   -0.2365 H   0  0  0  0  0  0  0  0  0  0  0  0
    9.6175    0.9062    1.5109 H   0  0  0  0  0  0  0  0  0  0  0  0
    8.4250   -0.5032    3.1172 H   0  0  0  0  0  0  0  0  0  0  0  0
    6.1250   -3.2672    4.6825 H   0  0  0  0  0  0  0  0  0  0  0  0
    4.8069   -0.0920    0.8161 H   0  0  0  0  0  0  0  0  0  0  0  0
    5.1937    2.3797   -0.7831 H   0  0  0  0  0  0  0  0  0  0  0  0
    5.0705    0.7602   -1.5415 H   0  0  0  0  0  0  0  0  0  0  0  0
    6.5891   -2.1398    9.0030 H   0  0  0  0  0  0  0  0  0  0  0  0
    7.2369   -0.4593    8.9424 H   0  0  0  0  0  0  0  0  0  0  0  0
    5.4555   -0.7435    9.1328 H   0  0  0  0  0  0  0  0  0  0  0  0
    5.2045   -1.9851    2.6385 H   0  0  0  0  0  0  0  0  0  0  0  0
  1  2  1  0
  2  3  1  0
  3  4  1  0
  4  5  1  0
  5  6  2  0
  8  9  1  0
  7 10  1  0
  9 10  2  0
  6 11  1  0
 11 12  2  0
  4 13  2  0
 12 13  1  0
  1 14  1  0
 13 14  1  0
 11 16  1  0
 10 16  1  0
  7 17  2  0
 17 18  1  0
  8 18  1  0
 15 18  1  0
  8 19  2  0
  9 20  1  0
  1 21  1  0
  2 22  1  6
  2 23  1  0
  3 24  1  6
  3 25  1  0
  5 26  1  0
  6 27  1  0
  7 28  1  0
 12 29  1  0
 14 30  1  1
 14 31  1  0
 15 32  1  1
 15 33  1  0
 15 34  1  0
 16 35  1  0
M  END
