7OMJ_GCP_A_401
     RDKit          3D

 32 34  0  0  0  0  0  0  0  0999 V2000
   13.3730   -4.0345   23.2060 P   0  0  2  0  0  0  0  0  0  0  0  0
   13.3863   -3.1301   21.9976 O   0  0  0  0  0  0  0  0  0  0  0  0
   13.1095   -3.2113   24.4119 O   0  0  0  0  0  0  0  0  0  0  0  0
   14.6890   -4.7522   23.1549 O   0  0  0  0  0  0  0  0  0  0  0  0
   12.0459   -5.2944   23.0269 C   0  0  0  0  0  0  0  0  0  0  0  0
   11.1545   -5.7969   24.5410 P   0  0  1  0  0  0  0  0  0  0  0  0
   12.0705   -6.1221   25.6763 O   0  0  0  0  0  0  0  0  0  0  0  0
   10.0286   -4.8489   24.7542 O   0  0  0  0  0  0  0  0  0  0  0  0
   10.6185   -7.2276   24.0148 O   0  0  0  0  0  0  0  0  0  0  0  0
    9.1427   -7.8184   23.9297 P   0  0  1  0  0  0  0  0  0  0  0  0
    8.9242   -8.8688   25.0026 O   0  0  0  0  0  0  0  0  0  0  0  0
    8.1408   -6.6817   23.8928 O   0  0  0  0  0  0  0  0  0  0  0  0
    9.2345   -8.5268   22.4614 O   0  0  0  0  0  0  0  0  0  0  0  0
    9.7051   -9.8547   22.4093 C   0  0  0  0  0  0  0  0  0  0  0  0
    8.7132  -10.6403   21.5239 C   0  0  1  0  0  0  0  0  0  0  0  0
    7.4918  -10.7323   22.0624 O   0  0  0  0  0  0  0  0  0  0  0  0
    8.5387   -9.9385   20.1713 C   0  0  1  0  0  0  0  0  0  0  0  0
    9.4735  -10.4043   19.2928 O   0  0  0  0  0  0  0  0  0  0  0  0
    7.1172  -10.3290   19.7907 C   0  0  1  0  0  0  0  0  0  0  0  0
    7.1600  -11.7094   19.1852 O   0  0  0  0  0  0  0  0  0  0  0  0
    6.4052  -10.4752   20.8733 C   0  0  2  0  0  0  0  0  0  0  0  0
    5.5935   -9.4269   21.4757 N   0  0  0  0  0  0  0  0  0  0  0  0
    5.9734   -8.4433   22.3049 C   0  0  0  0  0  0  0  0  0  0  0  0
    4.8808   -7.7170   22.6458 N   0  0  0  0  0  0  0  0  0  0  0  0
    3.7972   -8.3082   22.0653 C   0  0  0  0  0  0  0  0  0  0  0  0
    2.4450   -8.0295   22.0663 C   0  0  0  0  0  0  0  0  0  0  0  0
    1.9069   -7.1426   22.6918 O   0  0  0  0  0  0  0  0  0  0  0  0
    1.6539   -8.8212   21.3713 N   0  0  0  0  0  0  0  0  0  0  0  0
    2.1472   -9.8672   20.6616 C   0  0  0  0  0  0  0  0  0  0  0  0
    1.1734  -10.6381   19.9536 N   0  0  0  0  0  0  0  0  0  0  0  0
    3.4533  -10.1692   20.6276 N   0  0  0  0  0  0  0  0  0  0  0  0
    4.2649   -9.3529   21.3515 C   0  0  0  0  0  0  0  0  0  0  0  0
  1  2  2  0
  1  3  1  1
  1  4  1  0
  1  5  1  0
  5  6  1  0
  6  7  2  0
  6  8  1  1
  6  9  1  0
  9 10  1  0
 10 11  2  0
 10 12  1  6
 10 13  1  0
 13 14  1  0
 15 14  1  1
 15 16  1  0
 15 17  1  0
 17 18  1  6
 17 19  1  0
 19 20  1  1
 16 21  1  0
 19 21  1  0
 21 22  1  1
 22 23  1  0
 23 24  2  0
 24 25  1  0
 25 26  1  0
 26 27  2  0
 26 28  1  0
 28 29  1  0
 29 30  1  0
 29 31  2  0
 22 32  1  0
 25 32  2  0
 31 32  1  0
M  END
