7R7R_AWJ_A_1501
     RDKit          3D

 33 36  0  0  0  0  0  0  0  0999 V2000
   28.8941   47.0285    8.6113 C   0  0  0  0  0  0  0  0  0  0  0  0
   27.6471   46.5440    9.0398 C   0  0  0  0  0  0  0  0  0  0  0  0
   27.6129   45.2871    9.5148 N   0  0  0  0  0  0  0  0  0  0  0  0
   28.7123   44.5158    9.5829 C   0  0  0  0  0  0  0  0  0  0  0  0
   29.9531   44.9210    9.1849 C   0  0  0  0  0  0  0  0  0  0  0  0
   30.0284   46.2259    8.6841 C   0  0  0  0  0  0  0  0  0  0  0  0
   28.9115   48.3040    8.1333 O   0  0  0  0  0  0  0  0  0  0  0  0
   26.4764   47.3560    8.9690 N   0  0  0  0  0  0  0  0  0  0  0  0
   29.9039   49.0059    7.4792 C   0  0  1  0  0  0  0  0  0  0  0  0
   29.2033   50.0273    6.6160 C   0  0  0  0  0  0  0  0  0  0  0  0
   30.7872   49.8355    8.4024 C   0  0  0  0  0  0  0  0  0  0  0  0
   29.8732   50.4725    5.4781 C   0  0  0  0  0  0  0  0  0  0  0  0
   29.2523   51.4084    4.6770 C   0  0  0  0  0  0  0  0  0  0  0  0
   27.9956   51.9105    4.9712 C   0  0  0  0  0  0  0  0  0  0  0  0
   27.3457   51.4472    6.1182 C   0  0  0  0  0  0  0  0  0  0  0  0
   27.9489   50.5058    6.9407 C   0  0  0  0  0  0  0  0  0  0  0  0
   26.1093   51.9271    6.4245 F   0  0  0  0  0  0  0  0  0  0  0  0
   31.1624   49.9379    5.2002 N   0  0  0  0  0  0  0  0  0  0  0  0
   31.3473   48.9780    4.1720 N   0  0  0  0  0  0  0  0  0  0  0  0
   32.7191   48.6679    4.1694 C   0  0  0  0  0  0  0  0  0  0  0  0
   33.3558   49.3664    5.1113 C   0  0  0  0  0  0  0  0  0  0  0  0
   32.3894   50.1889    5.7892 N   0  0  0  0  0  0  0  0  0  0  0  0
   31.1687   44.1565    9.2257 C   0  0  0  0  0  0  0  0  0  0  0  0
   31.6364   43.0887    9.9441 C   0  0  0  0  0  0  0  0  0  0  0  0
   32.8717   42.7251    9.6077 N   0  0  0  0  0  0  0  0  0  0  0  0
   33.5911   43.1527    8.8305 C   0  0  0  0  0  0  0  0  0  0  0  0
   32.6161   44.5490    8.0878 S   0  0  0  0  0  0  0  0  0  0  0  0
   30.8425   42.4046   10.9973 C   0  0  0  0  0  0  0  0  0  0  0  0
   34.9785   42.9760    8.2412 C   0  0  1  0  0  0  0  0  0  0  0  0
   35.9408   43.2236    9.3491 C   0  0  0  0  0  0  0  0  0  0  0  0
   35.1208   41.7230    7.6735 O   0  0  0  0  0  0  0  0  0  0  0  0
   35.1934   44.0824    7.2067 C   0  0  0  0  0  0  0  0  0  0  0  0
   35.8127   42.1609   10.2690 O   0  0  0  0  0  0  0  0  0  0  0  0
  1  2  2  0
  2  3  1  0
  3  4  2  0
  4  5  1  0
  1  6  1  0
  5  6  2  0
  1  7  1  0
  2  8  1  0
  9  7  1  1
  9 10  1  0
 11  9  1  1
 10 12  1  0
 12 13  2  0
 13 14  1  0
 14 15  2  0
 10 16  2  0
 15 16  1  0
 15 17  1  0
 12 18  1  0
 18 19  1  0
 19 20  1  0
 20 21  2  0
 18 22  1  0
 21 22  1  0
  5 23  1  0
 23 24  2  0
 24 25  1  0
 25 26  2  0
 23 27  1  0
 26 27  1  0
 28 24  1  1
 26 29  1  0
 29 30  1  0
 29 31  1  6
 32 29  1  1
 30 33  1  1
M  END
$$$$
