
     RDKit          3D

 10  9  0  0  0  0  0  0  0  0999 V2000
   34.7327   33.3909   45.6981 O   0  0  0  0  0  1  0  0  0  0  0  0
   33.5095   33.6221   45.9640 C   0  0  0  0  0  0  0  0  0  0  0  0
   32.5388   33.8459   45.1957 O   0  0  0  0  0  0  0  0  0  0  0  0
   33.2233   33.6408   47.5053 C   0  0  2  0  0  0  0  0  0  0  0  0
   33.6858   32.3732   48.0646 O   0  0  0  0  0  0  0  0  0  0  0  0
   31.7656   33.8967   47.9655 C   0  0  0  0  0  0  0  0  0  0  0  0
   31.2809   35.2638   47.4442 C   0  0  0  0  0  0  0  0  0  0  0  0
   30.8187   32.7989   47.4422 C   0  0  0  0  0  0  0  0  0  0  0  0
   31.6603   33.8915   49.5113 C   0  0  0  0  0  0  0  0  0  0  0  0
   32.6072   34.7636   50.1223 O   0  0  0  0  0  0  0  0  0  0  0  0
  1  2  1  0
  2  3  2  0
  2  4  1  0
  4  5  1  6
  4  6  1  0
  6  7  1  0
  6  8  1  0
  6  9  1  0
  9 10  1  0
M  CHG  1   1  -1
M  END
