1HWI_115_B_1
     RDKit          3D

 56 58  0  0  0  0  0  0  0  0999 V2000
   42.8350    0.8453   -3.4670 C   0  0  0  0  0  0  0  0  0  0  0  0
   43.5392    0.3951   -2.3753 C   0  0  0  0  0  0  0  0  0  0  0  0
   44.8294    0.8786   -2.1069 C   0  0  0  0  0  0  0  0  0  0  0  0
   45.3838    1.8245   -2.9865 C   0  0  0  0  0  0  0  0  0  0  0  0
   44.6516    2.2820   -4.0996 C   0  0  0  0  0  0  0  0  0  0  0  0
   43.3573    1.7979   -4.3447 C   0  0  0  0  0  0  0  0  0  0  0  0
   41.5956    0.2427   -3.4353 C   0  0  0  0  0  0  0  0  0  0  0  0
   41.5997   -0.5725   -2.2963 C   0  0  0  0  0  0  0  0  0  0  0  0
   42.8038   -0.4883   -1.6531 N   0  0  0  0  0  0  0  0  0  0  0  0
   38.0828    0.6075   -4.7933 C   0  0  0  0  0  0  0  0  0  0  0  0
   39.1453    0.3904   -3.9115 C   0  0  0  0  0  0  0  0  0  0  0  0
   40.4714    0.5023   -4.3590 C   0  0  0  0  0  0  0  0  0  0  0  0
   40.7197    0.8510   -5.6960 C   0  0  0  0  0  0  0  0  0  0  0  0
   39.6547    1.0720   -6.5749 C   0  0  0  0  0  0  0  0  0  0  0  0
   38.3368    0.9476   -6.1250 C   0  0  0  0  0  0  0  0  0  0  0  0
   37.3058    1.1579   -6.9798 F   0  0  0  0  0  0  0  0  0  0  0  0
   36.0935   -0.8237   -0.2696 O   0  0  0  0  0  0  0  0  0  0  0  0
   36.7002    1.2010    0.6298 O   0  0  0  0  0  0  0  0  0  0  0  0
   39.8557   -1.9939   -0.1360 O   0  0  0  0  0  0  0  0  0  0  0  0
   36.9084   -0.1594    0.4250 C   0  0  0  0  0  0  0  0  0  0  0  0
   38.1141   -0.8286    1.0120 C   0  0  2  0  0  0  0  0  0  0  0  0
   38.5078   -2.1004    0.2348 C   0  0  1  0  0  0  0  0  0  0  0  0
   37.6354   -2.2691   -1.0314 C   0  0  1  0  0  0  0  0  0  0  0  0
   38.3655   -2.7272   -2.3190 C   0  0  1  0  0  0  0  0  0  0  0  0
   39.5420   -1.8588   -2.7100 C   0  0  0  0  0  0  0  0  0  0  0  0
   40.4608   -1.4040   -1.8493 C   0  0  0  0  0  0  0  0  0  0  0  0
   43.2414   -1.1774   -0.4189 C   0  0  1  0  0  0  0  0  0  0  0  0
   42.7265   -0.4482    0.8246 C   0  0  1  0  0  0  0  0  0  0  0  0
   42.8674   -2.6671   -0.4138 C   0  0  2  0  0  0  0  0  0  0  0  0
   38.6714   -4.1009   -2.3198 O   0  0  0  0  0  0  0  0  0  0  0  0
   45.3994    0.5629   -1.2459 H   0  0  0  0  0  0  0  0  0  0  0  0
   46.3770    2.2127   -2.8011 H   0  0  0  0  0  0  0  0  0  0  0  0
   45.0851    3.0188   -4.7634 H   0  0  0  0  0  0  0  0  0  0  0  0
   42.7847    2.1657   -5.1857 H   0  0  0  0  0  0  0  0  0  0  0  0
   37.0633    0.5137   -4.4424 H   0  0  0  0  0  0  0  0  0  0  0  0
   38.9353    0.1438   -2.8795 H   0  0  0  0  0  0  0  0  0  0  0  0
   41.7358    0.9339   -6.0618 H   0  0  0  0  0  0  0  0  0  0  0  0
   39.8523    1.3340   -7.6065 H   0  0  0  0  0  0  0  0  0  0  0  0
   35.9526    1.5274    1.2304 H   0  0  0  0  0  0  0  0  0  0  0  0
   39.9111   -1.2871   -0.8313 H   0  0  0  0  0  0  0  0  0  0  0  0
   37.8828   -1.0975    2.0659 H   0  0  0  0  0  0  0  0  0  0  0  0
   38.9668   -0.1150    1.0325 H   0  0  0  0  0  0  0  0  0  0  0  0
   38.3648   -2.9778    0.9063 H   0  0  0  0  0  0  0  0  0  0  0  0
   36.8525   -3.0295   -0.8216 H   0  0  0  0  0  0  0  0  0  0  0  0
   37.1029   -1.3141   -1.2390 H   0  0  0  0  0  0  0  0  0  0  0  0
   37.6227   -2.5828   -3.1341 H   0  0  0  0  0  0  0  0  0  0  0  0
   39.6584   -1.6394   -3.7648 H   0  0  0  0  0  0  0  0  0  0  0  0
   40.4006   -1.6675   -0.8066 H   0  0  0  0  0  0  0  0  0  0  0  0
   44.3484   -1.1629   -0.3623 H   0  0  0  0  0  0  0  0  0  0  0  0
   41.6303   -0.5614    0.9380 H   0  0  0  0  0  0  0  0  0  0  0  0
   43.2206   -0.8518    1.7340 H   0  0  0  0  0  0  0  0  0  0  0  0
   42.9644    0.6338    0.7483 H   0  0  0  0  0  0  0  0  0  0  0  0
   42.8641   -3.0638   -1.4514 H   0  0  0  0  0  0  0  0  0  0  0  0
   41.8791   -2.8501    0.0515 H   0  0  0  0  0  0  0  0  0  0  0  0
   43.6176   -3.2386    0.1738 H   0  0  0  0  0  0  0  0  0  0  0  0
   39.4150   -4.2613   -1.6874 H   0  0  0  0  0  0  0  0  0  0  0  0
  1  2  1  0
  2  3  2  0
  3  4  1  0
  4  5  2  0
  1  6  2  0
  5  6  1  0
  1  7  1  0
  7  8  2  0
  8  9  1  0
  2  9  1  0
 10 11  2  0
  7 12  1  0
 11 12  1  0
 12 13  2  0
 13 14  1  0
 14 15  2  0
 10 15  1  0
 15 16  1  0
 17 20  2  0
 18 20  1  0
 20 21  1  0
 21 22  1  0
 22 19  1  0
 22 23  1  0
 23 24  1  0
 24 25  1  0
 25 26  2  0
  8 26  1  0
  9 27  1  0
 27 28  1  0
 27 29  1  0
 24 30  1  0
  3 31  1  0
  4 32  1  0
  5 33  1  0
  6 34  1  0
 10 35  1  0
 11 36  1  0
 13 37  1  0
 14 38  1  0
 18 39  1  0
 19 40  1  0
 21 41  1  1
 21 42  1  0
 22 43  1  1
 23 44  1  1
 23 45  1  0
 24 46  1  6
 25 47  1  0
 26 48  1  0
 27 49  1  1
 28 50  1  1
 28 51  1  0
 28 52  1  0
 29 53  1  6
 29 54  1  0
 29 55  1  0
 30 56  1  0
M  END
