7SIU_9ID_A_901
     RDKit          3D

 31 34  0  0  0  0  0  0  0  0999 V2000
  -37.6358    2.3666   27.8984 N   0  0  0  0  0  0  0  0  0  0  0  0
  -37.4022   -0.3069   25.4541 N   0  0  0  0  0  0  0  0  0  0  0  0
  -37.3060    1.7452   24.3564 C   0  0  0  0  0  0  0  0  0  0  0  0
  -37.3013    0.3745   24.3121 C   0  0  0  0  0  0  0  0  0  0  0  0
  -37.5114    0.2872   26.6815 C   0  0  0  0  0  0  0  0  0  0  0  0
  -37.6093   -0.5648   27.8408 C   0  0  0  0  0  0  0  0  0  0  0  0
  -37.1900   -0.3547   23.0767 C   0  0  0  0  0  0  0  0  0  0  0  0
  -37.8174   -1.8001   21.2803 C   0  0  0  0  0  0  0  0  0  0  0  0
  -35.9473   -0.2806   22.2277 C   0  0  0  0  0  0  0  0  0  0  0  0
  -35.9316    3.8097   19.8278 C   0  0  0  0  0  0  0  0  0  0  0  0
  -35.1187    5.8990   18.9552 C   0  0  0  0  0  0  0  0  0  0  0  0
  -37.2303    4.2642   19.6955 C   0  0  0  0  0  0  0  0  0  0  0  0
  -37.4189    4.6459   28.9939 C   0  0  0  0  0  0  0  0  0  0  0  0
  -34.4091    2.1052   20.4996 O   0  0  0  0  0  0  0  0  0  0  0  0
  -35.6183    2.4852   20.3510 C   0  0  0  0  0  0  0  0  0  0  0  0
  -37.4844    5.5237   19.1984 C   0  0  0  0  0  0  0  0  0  0  0  0
  -36.4213    6.3343   18.8306 C   0  0  0  0  0  0  0  0  0  0  0  0
  -34.8840    4.6271   19.4580 C   0  0  0  0  0  0  0  0  0  0  0  0
  -36.6074    1.5392   20.7265 N   0  0  0  0  0  0  0  0  0  0  0  0
  -36.3550    0.1152   20.8388 C   0  0  2  0  0  0  0  0  0  0  0  0
  -37.4976   -0.7016   20.2965 C   0  0  0  0  0  0  0  0  0  0  0  0
  -38.1492   -1.1374   22.5789 C   0  0  0  0  0  0  0  0  0  0  0  0
  -37.4123    2.3329   25.5518 N   0  0  0  0  0  0  0  0  0  0  0  0
  -37.6296   -1.9912   27.6210 N   0  0  0  0  0  0  0  0  0  0  0  0
  -37.6800   -0.2164   29.0300 O   0  0  0  0  0  0  0  0  0  0  0  0
  -37.5131    1.6458   26.6903 C   0  0  0  0  0  0  0  0  0  0  0  0
  -37.6000    3.8077   27.9384 C   0  0  0  0  0  0  0  0  0  0  0  0
  -37.7440    4.6528   26.8308 C   0  0  0  0  0  0  0  0  0  0  0  0
  -37.4550    5.9212   28.5266 N   0  0  0  0  0  0  0  0  0  0  0  0
  -37.6509    5.9321   27.2221 N   0  0  0  0  0  0  0  0  0  0  0  0
  -37.7431    7.1265   26.3918 C   0  0  0  0  0  0  0  0  0  0  0  0
  3  4  1  0
  2  4  2  0
  2  5  1  0
  5  6  1  0
  4  7  1  0
  9  7  1  1
 10 12  1  0
 14 15  2  0
 10 15  1  0
 12 16  2  0
 16 17  1  0
 11 17  2  0
 10 18  2  0
 11 18  1  0
 15 19  1  0
 20 19  1  1
  9 20  1  0
 21  8  1  1
 20 21  1  0
  8 22  1  1
  7 22  2  0
  3 23  2  0
  6 24  1  0
  6 25  2  0
 23 26  1  0
  5 26  2  0
  1 26  1  0
  1 27  1  0
 13 27  1  0
 27 28  2  0
 13 29  2  0
 28 30  1  0
 29 30  1  0
 31 30  1  6
M  END
$$$$
