7ROR_69X_B_401
     RDKit          3D

 58 61  0  0  0  0  0  0  0  0999 V2000
    3.3333    1.7921    4.7075 C   0  0  2  0  0  0  0  0  0  0  0  0
    2.8473    0.6804    5.6662 C   0  0  0  0  0  0  0  0  0  0  0  0
    1.8657   -0.2480    4.9934 C   0  0  0  0  0  0  0  0  0  0  0  0
    0.4853   -0.0671    5.1723 C   0  0  0  0  0  0  0  0  0  0  0  0
   -0.4264   -0.8517    4.4602 C   0  0  0  0  0  0  0  0  0  0  0  0
    0.0295   -1.8212    3.5622 C   0  0  0  0  0  0  0  0  0  0  0  0
    1.4056   -2.0153    3.3891 C   0  0  0  0  0  0  0  0  0  0  0  0
    2.3192   -1.2322    4.0996 C   0  0  0  0  0  0  0  0  0  0  0  0
    3.5424    3.0896    5.4414 C   0  0  0  0  0  0  0  0  0  0  0  0
    4.0563    2.1597    3.0581 C   0  0  0  0  0  0  0  0  0  0  0  0
    2.7444    2.9504    2.9858 C   0  0  1  0  0  0  0  0  0  0  0  0
    0.7061    2.0268    2.5177 C   0  0  1  0  0  0  0  0  0  0  0  0
    1.3258    2.3524    1.1676 C   0  0  2  0  0  0  0  0  0  0  0  0
    2.4046    3.3415    1.5383 C   0  0  1  0  0  0  0  0  0  0  0  0
   -0.9459    0.2287    1.8737 C   0  0  0  0  0  0  0  0  0  0  0  0
   -0.1488   -1.4880    2.8144 C   0  0  0  0  0  0  0  0  0  0  0  0
    0.1621   -2.7494    3.3071 C   0  0  0  0  0  0  0  0  0  0  0  0
    2.0812   -1.7877    4.3509 C   0  0  0  0  0  0  0  0  0  0  0  0
    0.6488   -0.4352    3.1039 C   0  0  0  0  0  0  0  0  0  0  0  0
    2.3965    1.9756    3.5974 N   0  0  0  0  0  0  0  0  0  0  0  0
    0.1578    0.6700    2.5294 N   0  0  0  0  0  4  0  0  0  0  0  0
   -1.1731   -1.1038    2.0322 N   0  0  0  0  0  0  0  0  0  0  0  0
   -0.6557   -3.8865    3.0341 N   0  0  0  0  0  0  0  0  0  0  0  0
    1.2850   -2.8696    4.0755 N   0  0  0  0  0  0  0  0  0  0  0  0
    1.7656   -0.5513    3.8621 N   0  0  0  0  0  0  0  0  0  0  0  0
   -0.8901   -2.5802    2.8435 O   0  0  0  0  0  0  0  0  0  0  0  0
    2.6024    3.6199    6.0938 O   0  0  0  0  0  0  0  0  0  0  0  0
    4.8184    3.6539    5.4422 O   0  0  0  0  0  0  0  0  0  0  0  0
    6.8859    4.8035    3.9616 O   0  0  0  0  0  0  0  0  0  0  0  0
    6.8652    2.2544    4.5402 O   0  0  0  0  0  0  0  0  0  0  0  0
    5.1300    3.0103    2.7366 O   0  0  0  0  0  0  0  0  0  0  0  0
    1.6936    2.1645    3.5156 O   0  0  0  0  0  0  0  0  0  0  0  0
    0.3851    2.9094    0.2863 O   0  0  0  0  0  0  0  0  0  0  0  0
    1.9540    4.6761    1.4609 O   0  0  0  0  0  0  0  0  0  0  0  0
    5.9544    3.4049    4.1764 P   0  0  1  0  0  5  0  0  0  0  0  0
    4.3150    1.4880    4.2802 H   0  0  0  0  0  0  0  0  0  0  0  0
    2.3520    1.1476    6.5444 H   0  0  0  0  0  0  0  0  0  0  0  0
    3.7186    0.1056    6.0528 H   0  0  0  0  0  0  0  0  0  0  0  0
    0.1169    0.6977    5.8440 H   0  0  0  0  0  0  0  0  0  0  0  0
   -1.4883   -0.6928    4.5939 H   0  0  0  0  0  0  0  0  0  0  0  0
    1.7678   -2.7592    2.6921 H   0  0  0  0  0  0  0  0  0  0  0  0
    3.3789   -1.3731    3.9302 H   0  0  0  0  0  0  0  0  0  0  0  0
    3.9857    1.3163    2.3342 H   0  0  0  0  0  0  0  0  0  0  0  0
    4.1777    1.7585    4.0888 H   0  0  0  0  0  0  0  0  0  0  0  0
    2.8588    3.8621    3.6139 H   0  0  0  0  0  0  0  0  0  0  0  0
   -0.1094    2.7511    2.7421 H   0  0  0  0  0  0  0  0  0  0  0  0
    1.8023    1.4468    0.7208 H   0  0  0  0  0  0  0  0  0  0  0  0
    3.2763    3.2317    0.8539 H   0  0  0  0  0  0  0  0  0  0  0  0
   -1.5817    0.8683    1.2764 H   0  0  0  0  0  0  0  0  0  0  0  0
    2.9642   -1.9135    4.9616 H   0  0  0  0  0  0  0  0  0  0  0  0
    1.4308    2.1186    3.9754 H   0  0  0  0  0  0  0  0  0  0  0  0
    2.3776    1.0980    3.0304 H   0  0  0  0  0  0  0  0  0  0  0  0
   -0.3899   -4.8246    3.4062 H   0  0  0  0  0  0  0  0  0  0  0  0
   -1.5237   -3.7972    2.4624 H   0  0  0  0  0  0  0  0  0  0  0  0
   -0.5919   -3.2821    2.1758 H   0  0  0  0  0  0  0  0  0  0  0  0
    6.2692    5.5538    4.1534 H   0  0  0  0  0  0  0  0  0  0  0  0
   -0.1228    2.1500   -0.0968 H   0  0  0  0  0  0  0  0  0  0  0  0
    1.1901    4.7846    2.0869 H   0  0  0  0  0  0  0  0  0  0  0  0
  1  2  1  0
  2  3  1  0
  3  4  4  0
  4  5  4  0
  5  6  4  0
  6  7  4  0
  7  8  4  0
  3  8  4  0
  1  9  1  0
 11 10  1  0
 12 13  1  0
 11 14  1  0
 13 14  1  0
 16 17  4  0
 16 19  4  0
  1 20  1  0
 12 21  1  0
 15 21  4  0
 19 21  4  0
 15 22  4  0
 16 22  4  0
 17 23  1  0
 18 24  4  0
 17 24  4  0
 19 25  4  0
 18 25  4  0
  6 26  1  0
  9 27  2  0
  9 28  1  0
 10 31  1  0
 11 32  1  0
 12 32  1  0
 13 33  1  0
 14 34  1  0
 35 28  1  6
 30 35  2  0
 35 29  1  0
 31 35  1  0
  1 36  1  1
  2 37  1  0
  2 38  1  0
  4 39  1  0
  5 40  1  0
  7 41  1  0
  8 42  1  0
 10 43  1  0
 10 44  1  0
 11 45  1  6
 12 46  1  6
 13 47  1  1
 14 48  1  1
 15 49  1  0
 18 50  1  0
 20 51  1  0
 20 52  1  0
 23 53  1  0
 23 54  1  0
 26 55  1  0
 29 56  1  0
 33 57  1  0
 34 58  1  0
M  CHG  1  21   1
M  END
