@<TRIPOS>MOLECULE
1X8X_TYR_A_952
 24 24 0 0 0
SMALL
GASTEIGER

@<TRIPOS>ATOM
      1 N           7.2940   27.6690   15.0320 N.3     1  TYR1       -0.3181
      2 CA          6.8540   28.3310   16.2960 C.3     1  TYR1        0.1072
      3 C           5.3540   28.5940   16.2400 C.2     1  TYR1        0.3220
      4 O           4.7930   29.0130   17.2730 O.2     1  TYR1       -0.2492
      5 CB          7.5920   29.6610   16.4880 C.3     1  TYR1       -0.0020
      6 CG          9.0970   29.5370   16.4750 C.ar    1  TYR1       -0.0451
      7 CD1         9.7530   28.6950   17.3710 C.ar    1  TYR1       -0.0551
      8 CD2         9.8670   30.2590   15.5640 C.ar    1  TYR1       -0.0551
      9 CE1        11.1390   28.5750   17.3610 C.ar    1  TYR1       -0.0199
     10 CE2        11.2520   30.1450   15.5470 C.ar    1  TYR1       -0.0199
     11 CZ         11.8810   29.3030   16.4470 C.ar    1  TYR1        0.1169
     12 OH         13.2570   29.1950   16.4370 O.3     1  TYR1       -0.5068
     13 OXT         4.7690   28.3980   15.1540 O.3     1  TYR1       -0.4795
     14 H1          6.7948   26.7868   14.9186 H       1  TYR1        0.1190
     15 H2          8.2971   27.4891   15.0738 H       1  TYR1        0.1190
     16 HA          7.0798   27.6840   17.1178 H       1  TYR1        0.0577
     17 HB1         7.2969   30.0765   17.4288 H       1  TYR1        0.0334
     18 HB2         7.3260   30.2844   15.6600 H       1  TYR1        0.0334
     19 HD1         9.2015   28.1515   18.0532 H       1  TYR1        0.0621
     20 HD2         9.4010   30.8881   14.8916 H       1  TYR1        0.0621
     21 HE1        11.6108   27.9473   18.0306 H       1  TYR1        0.0654
     22 HE2        11.8085   30.6856   14.8665 H       1  TYR1        0.0654
     23 HH         13.6867   28.6259   17.0448 H       1  TYR1        0.2921
     24 HXT         5.2487   28.0816   14.4139 H       1  TYR1        0.2951
@<TRIPOS>BOND
     1     2     1    1
     2     2     3    1
     3     3     4    2
     4     2     5    1
     5     5     6    1
     6     6     7   ar
     7     6     8   ar
     8     7     9   ar
     9     8    10   ar
    10     9    11   ar
    11    10    11   ar
    12    11    12    1
    13     3    13    1
    14     1    14    1
    15     1    15    1
    16     2    16    1
    17     5    17    1
    18     5    18    1
    19     7    19    1
    20     8    20    1
    21     9    21    1
    22    10    22    1
    23    12    23    1
    24    13    24    1
