
     RDKit          3D

 22 24  0  0  0  0  0  0  0  0999 V2000
   -8.6898  -11.8147   12.4312 N   0  0  0  0  0  0  0  0  0  0  0  0
   -8.8909  -11.7494    8.2868 N   0  0  0  0  0  0  0  0  0  0  0  0
   -5.0131  -10.3115   11.3552 C   0  0  0  0  0  0  0  0  0  0  0  0
   -5.9686   -9.2790    9.3914 C   0  0  0  0  0  0  0  0  0  0  0  0
   -8.8295  -12.9928   10.3567 C   0  0  0  0  0  0  0  0  0  0  0  0
   -8.7652  -12.9531   11.7276 C   0  0  0  0  0  0  0  0  0  0  0  0
   -5.8237   -9.3201   10.7846 C   0  0  0  0  0  0  0  0  0  0  0  0
   -8.6771  -10.6808   11.7230 C   0  0  0  0  0  0  0  0  0  0  0  0
   -9.4010  -12.9810    7.6597 C   0  0  0  0  0  0  0  0  0  0  0  0
  -11.1482  -11.6874    6.3503 C   0  0  0  0  0  0  0  0  0  0  0  0
   -6.5097   -8.2955   11.6596 C   0  0  0  0  0  0  0  0  0  0  0  0
   -4.5152  -11.1967    9.1634 C   0  0  0  0  0  0  0  0  0  0  0  0
   -4.3624  -11.2448   10.5476 C   0  0  0  0  0  0  0  0  0  0  0  0
   -5.3178  -10.2146    8.5856 C   0  0  0  0  0  0  0  0  0  0  0  0
   -8.8115  -11.7796    9.6945 C   0  0  0  0  0  0  0  0  0  0  0  0
  -10.8853  -12.8495    7.3273 C   0  0  0  0  0  0  0  0  0  0  0  0
  -10.0025  -10.6606    6.3601 C   0  0  0  0  0  0  0  0  0  0  0  0
   -9.4335  -10.4809    7.7663 C   0  0  0  0  0  0  0  0  0  0  0  0
  -11.3903  -12.1948    4.9287 C   0  0  0  0  0  0  0  0  0  0  0  0
   -8.0441   -8.3589   11.5891 C   0  0  0  0  0  0  0  0  0  0  0  0
   -8.7460  -10.6283   10.3869 N   0  0  0  0  0  0  0  0  0  0  0  0
   -8.6167   -9.4525   12.3639 N   0  0  0  0  0  0  0  0  0  0  0  0
  5  6  4  0
  1  6  4  0
  4  7  4  0
  3  7  4  0
  1  8  4  0
  2  9  1  0
  7 11  1  0
 12 13  4  0
  3 13  4  0
  4 14  4  0
 12 14  4  0
  2 15  1  0
  5 15  4  0
 10 16  1  0
  9 16  1  0
 10 17  1  0
 17 18  1  0
  2 18  1  0
 10 19  1  0
 11 20  1  0
 15 21  4  0
  8 21  4  0
 20 22  1  0
  8 22  1  0
M  END
