@<TRIPOS>MOLECULE
1N2J_PAF_A_1001
 21 20 0 0 0
SMALL
GASTEIGER

@<TRIPOS>ATOM
      1 O          33.3200   33.2000   44.9730 O.co2   1  UNL1       -0.5471
      2 C          33.3260   34.2000   45.8110 C.2     1  UNL1        0.0707
      3 O          33.2480   35.3780   45.4420 O.co2   1  UNL1       -0.5471
      4 C          33.4000   33.8580   47.3360 C.3     1  UNL1        0.1014
      5 O          34.1460   32.6030   47.4910 O.3     1  UNL1       -0.3854
      6 C          31.9500   33.7180   47.9770 C.3     1  UNL1        0.0194
      7 C          31.1660   35.0230   47.8550 C.3     1  UNL1       -0.0550
      8 C          31.1820   32.5830   47.3280 C.3     1  UNL1       -0.0550
      9 C          32.1890   33.4150   49.4770 C.3     1  UNL1        0.0520
     10 O          32.9210   34.4570   50.1000 O.3     1  UNL1       -0.3944
     11 H          33.8957   34.6553   47.8494 H       1  UNL1        0.0661
     12 H          33.6838   31.8919   47.0204 H       1  UNL1        0.2103
     13 H          30.9956   35.2414   46.8215 H       1  UNL1        0.0237
     14 H          31.7263   35.8186   48.3000 H       1  UNL1        0.0237
     15 H          30.2269   34.9233   48.3580 H       1  UNL1        0.0237
     16 H          31.0240   32.8051   46.2933 H       1  UNL1        0.0237
     17 H          30.2370   32.4668   47.8162 H       1  UNL1        0.0237
     18 H          31.7431   31.6762   47.4165 H       1  UNL1        0.0237
     19 H          32.7386   32.5012   49.5653 H       1  UNL1        0.0563
     20 H          31.2386   33.3318   49.9616 H       1  UNL1        0.0563
     21 H          33.7866   34.5451   49.6712 H       1  UNL1        0.2094
@<TRIPOS>UNITY_ATOM_ATTR
1 1
charge -1
@<TRIPOS>BOND
     1     1     2   ar
     2     2     3   ar
     3     2     4    1
     4     4     5    1
     5     4     6    1
     6     6     7    1
     7     6     8    1
     8     6     9    1
     9     9    10    1
    10     4    11    1
    11     5    12    1
    12     7    13    1
    13     7    14    1
    14     7    15    1
    15     8    16    1
    16     8    17    1
    17     8    18    1
    18     9    19    1
    19     9    20    1
    20    10    21    1
