
     RDKit          3D

 15 16  0  0  0  0  0  0  0  0999 V2000
   22.2461   68.3649   72.2404 C   0  0  0  0  0  0  0  0  0  0  0  0
   23.9475   66.8639   71.5449 C   0  0  0  0  0  0  0  0  0  0  0  0
   25.2484   67.6590   71.5965 C   0  0  0  0  0  0  0  0  0  0  0  0
   26.5885   65.5937   71.1283 C   0  0  0  0  0  0  0  0  0  0  0  0
   27.8613   65.1493   71.3889 C   0  0  0  0  0  0  0  0  0  0  0  0
   28.5410   66.1684   72.1014 C   0  0  0  0  0  0  0  0  0  0  0  0
   29.8373   66.3142   72.6387 C   0  0  0  0  0  0  0  0  0  0  0  0
   30.2282   67.4708   73.3064 C   0  0  0  0  0  0  0  0  0  0  0  0
   29.3210   68.5114   73.4492 C   0  0  0  0  0  0  0  0  0  0  0  0
   28.0233   68.4103   72.9321 C   0  0  0  0  0  0  0  0  0  0  0  0
   27.6373   67.2312   72.2570 C   0  0  0  0  0  0  0  0  0  0  0  0
   26.4230   66.8682   71.6525 N   0  0  0  0  0  0  0  0  0  0  0  0
   22.9845   67.1873   72.5411 O   0  0  0  0  0  0  0  0  0  0  0  0
   25.3303   68.8817   71.6045 O   0  0  0  0  0  0  0  0  0  0  0  0
   30.9071   64.9957   72.4286 Cl  0  0  0  0  0  0  0  0  0  0  0  0
  2  3  1  0
  4  5  4  0
  5  6  4  0
  6  7  4  0
  7  8  4  0
  8  9  4  0
  9 10  4  0
  6 11  4  0
 10 11  4  0
  4 12  4  0
  3 12  1  0
 11 12  4  0
  2 13  1  0
  1 13  1  0
  3 14  2  0
  7 15  1  0
M  END
