7M31_TDR_C_1108
     RDKit          3D

 15 15  0  0  0  0  0  0  0  0999 V2000
   28.1921   68.0919   45.9267 N   0  0  0  0  0  0  0  0  0  0  0  0
   27.0559   67.7618   45.2556 C   0  0  0  0  0  0  0  0  0  0  0  0
   26.7196   68.4124   44.2299 O   0  0  0  0  0  0  0  0  0  0  0  0
   26.2828   66.7294   45.6894 N   0  0  0  0  0  0  0  0  0  0  0  0
   26.6271   66.0137   46.7946 C   0  0  0  0  0  0  0  0  0  0  0  0
   25.8961   65.0579   47.1722 O   0  0  0  0  0  0  0  0  0  0  0  0
   27.7915   66.3418   47.5066 C   0  0  0  0  0  0  0  0  0  0  0  0
   28.2080   65.5616   48.7220 C   0  0  1  0  0  0  0  0  0  0  0  0
   28.5724   67.4035   47.0348 C   0  0  0  0  0  0  0  0  0  0  0  0
   28.7856   68.8835   45.5898 H   0  0  0  0  0  0  0  0  0  0  0  0
   25.4125   66.4816   45.1649 H   0  0  0  0  0  0  0  0  0  0  0  0
   29.1846   65.9148   49.1164 H   0  0  0  0  0  0  0  0  0  0  0  0
   27.4485   65.6777   49.5236 H   0  0  0  0  0  0  0  0  0  0  0  0
   28.2995   64.4867   48.4597 H   0  0  0  0  0  0  0  0  0  0  0  0
   29.4840   67.6839   47.5487 H   0  0  0  0  0  0  0  0  0  0  0  0
  1  2  1  0
  2  3  2  0
  2  4  1  0
  4  5  1  0
  5  6  2  0
  5  7  1  0
  7  8  1  0
  1  9  1  0
  7  9  2  0
  1 10  1  0
  4 11  1  0
  8 12  1  1
  8 13  1  0
  8 14  1  0
  9 15  1  0
M  END
