6YQW_82I_A_201
     RDKit          3D

 19 19  0  0  0  0  0  0  0  0999 V2000
    2.7862   16.1977   11.8944 C   0  0  1  0  0  0  0  0  0  0  0  0
    1.8590   15.5663   10.9603 N   0  0  0  0  0  0  0  0  0  0  0  0
    0.5631   15.0598   11.3455 C   0  0  0  0  0  0  0  0  0  0  0  0
    0.1148   15.1498   12.6718 C   0  0  0  0  0  0  0  0  0  0  0  0
   -1.1067   14.6670   13.0104 N   0  0  0  0  0  0  0  0  0  0  0  0
   -1.9190   14.0972   12.1179 N   0  0  0  0  0  0  0  0  0  0  0  0
   -3.2200   13.6031   12.5692 C   0  0  1  0  0  0  0  0  0  0  0  0
   -1.5406   13.9792   10.8092 C   0  0  0  0  0  0  0  0  0  0  0  0
   -2.3121   13.4397    9.9681 O   0  0  0  0  0  0  0  0  0  0  0  0
   -0.2895   14.4598   10.3994 C   0  0  0  0  0  0  0  0  0  0  0  0
    0.1803   14.2979    8.7056 Cl  0  0  0  0  0  0  0  0  0  0  0  0
    2.3202   17.1034   12.3364 H   0  0  0  0  0  0  0  0  0  0  0  0
    3.0614   15.4816   12.6970 H   0  0  0  0  0  0  0  0  0  0  0  0
    3.7115   16.5019   11.3607 H   0  0  0  0  0  0  0  0  0  0  0  0
    2.1756   15.4904    9.9686 H   0  0  0  0  0  0  0  0  0  0  0  0
    0.7238   15.5996   13.4429 H   0  0  0  0  0  0  0  0  0  0  0  0
   -4.0335   14.1276   12.0240 H   0  0  0  0  0  0  0  0  0  0  0  0
   -3.2945   12.5105   12.3836 H   0  0  0  0  0  0  0  0  0  0  0  0
   -3.3533   13.7843   13.6576 H   0  0  0  0  0  0  0  0  0  0  0  0
  1  2  1  0
  2  3  1  0
  3  4  1  0
  4  5  2  0
  5  6  1  0
  6  7  1  0
  6  8  1  0
  8  9  2  0
  8 10  1  0
  3 10  2  0
 10 11  1  0
  1 12  1  1
  1 13  1  0
  1 14  1  0
  2 15  1  0
  4 16  1  0
  7 17  1  6
  7 18  1  0
  7 19  1  0
M  END
