@<TRIPOS>MOLECULE
1Z95_198_A_501
 43 44 0 0 0
SMALL
GASTEIGER

@<TRIPOS>ATOM
      1 C           1.3261    2.8878    3.5429 C.ar    1  UNL1       -0.0342
      2 C           2.1781    2.8472    4.6512 C.ar    1  UNL1       -0.0247
      3 C           1.8981    1.9888    5.7189 C.ar    1  UNL1        0.1235
      4 F           2.7254    1.9494    6.7923 F       1  UNL1       -0.2055
      5 C           0.7670    1.1678    5.6771 C.ar    1  UNL1       -0.0247
      6 C          -0.0865    1.2066    4.5698 C.ar    1  UNL1       -0.0342
      7 C           0.1855    2.0728    3.5006 C.ar    1  UNL1        0.0885
      8 S          -0.8749    2.1083    2.0958 S.O2    1  UNL1        0.0001
      9 O          -2.2716    1.7543    2.5248 O.2     1  UNL1       -0.1693
     10 O          -0.8795    3.4968    1.5216 O.2     1  UNL1       -0.1693
     11 C          -0.2600    0.9136    0.9046 C.3     1  UNL1        0.1078
     12 C          -1.0585    0.8224   -0.4278 C.3     1  UNL1        0.1583
     13 O          -2.4311    0.6549   -0.1505 O.3     1  UNL1       -0.3780
     14 C          -0.8196    2.0593   -1.3229 C.3     1  UNL1       -0.0259
     15 C          -0.5891   -0.3923   -1.2061 C.2     1  UNL1        0.2503
     16 O           0.6272   -0.7295   -1.1691 O.2     1  UNL1       -0.2723
     17 N          -1.4958   -1.0856   -2.0809 N.am    1  UNL1       -0.2831
     18 C          -1.2290   -2.3803   -2.6472 C.ar    1  UNL1        0.0341
     19 C          -0.5093   -3.3562   -1.9356 C.ar    1  UNL1       -0.0276
     20 C          -1.7457   -2.6955   -3.9089 C.ar    1  UNL1       -0.0392
     21 C          -1.5191   -3.9507   -4.4729 C.ar    1  UNL1       -0.0421
     22 C          -0.7825   -4.9183   -3.7791 C.ar    1  UNL1        0.0635
     23 C          -0.5771   -6.2037   -4.4043 C.1     1  UNL1        0.0997
     24 N          -0.4127   -7.2337   -4.9057 N.1     1  UNL1       -0.1909
     25 C          -0.2685   -4.6288   -2.4923 C.ar    1  UNL1        0.0739
     26 C           0.5143   -5.6697   -1.7158 C.3     1  UNL1        0.4187
     27 F           0.9453   -5.1865   -0.4921 F       1  UNL1       -0.1659
     28 F           1.6255   -6.0541   -2.4446 F       1  UNL1       -0.1659
     29 F          -0.2845   -6.7760   -1.4896 F       1  UNL1       -0.1659
     30 H           1.5576    3.5505    2.7187 H       1  UNL1        0.0637
     31 H           3.0561    3.4795    4.6803 H       1  UNL1        0.0647
     32 H           0.5522    0.4992    6.5007 H       1  UNL1        0.0647
     33 H          -0.9544    0.5601    4.5456 H       1  UNL1        0.0637
     34 H           0.8040    1.1570    0.6938 H       1  UNL1        0.0538
     35 H          -0.2774   -0.0782    1.4071 H       1  UNL1        0.0538
     36 H          -2.8338    1.5445    0.0255 H       1  UNL1        0.2109
     37 H           0.2664    2.2045   -1.5100 H       1  UNL1        0.0263
     38 H          -1.2236    2.9821   -0.8628 H       1  UNL1        0.0263
     39 H          -1.3305    1.9291   -2.3015 H       1  UNL1        0.0263
     40 H          -2.3569   -0.5825   -2.3939 H       1  UNL1        0.1549
     41 H          -0.1605   -3.1281   -0.9378 H       1  UNL1        0.0642
     42 H          -2.3184   -1.9611   -4.4615 H       1  UNL1        0.0636
     43 H          -1.9219   -4.1682   -5.4552 H       1  UNL1        0.0631
@<TRIPOS>BOND
     1     1     2   ar
     2     2     3   ar
     3     3     4    1
     4     3     5   ar
     5     5     6   ar
     6     1     7   ar
     7     6     7   ar
     8     7     8    1
     9     8     9    2
    10     8    10    2
    11     8    11    1
    12    11    12    1
    13    12    13    1
    14    12    14    1
    15    12    15    1
    16    15    16    2
    17    15    17   am
    18    17    18    1
    19    18    19   ar
    20    18    20   ar
    21    20    21   ar
    22    21    22   ar
    23    22    23    1
    24    23    24    3
    25    19    25   ar
    26    22    25   ar
    27    25    26    1
    28    26    27    1
    29    26    28    1
    30    26    29    1
    31     1    30    1
    32     2    31    1
    33     5    32    1
    34     6    33    1
    35    11    34    1
    36    11    35    1
    37    13    36    1
    38    14    37    1
    39    14    38    1
    40    14    39    1
    41    17    40    1
    42    19    41    1
    43    20    42    1
    44    21    43    1
