@<TRIPOS>MOLECULE
1Z95_198_A_501
 43 44 0 0 0
SMALL
GASTEIGER

@<TRIPOS>ATOM
      1 C          29.1850    1.4670    9.0150 C.ar    1  UNL1       -0.0342
      2 C          28.7480    1.3070   10.3270 C.ar    1  UNL1       -0.0247
      3 C          29.5430    0.6260   11.2440 C.ar    1  UNL1        0.1235
      4 F          29.1270    0.4660   12.5160 F       1  UNL1       -0.2055
      5 C          30.7730    0.1070   10.8520 C.ar    1  UNL1       -0.0247
      6 C          31.2100    0.2690    9.5410 C.ar    1  UNL1       -0.0342
      7 C          30.4160    0.9480    8.6230 C.ar    1  UNL1        0.0885
      8 S          30.9610    1.1230    6.9710 S.O2    1  UNL1        0.0001
      9 O          30.5010    2.4500    6.4430 O.2     1  UNL1       -0.1693
     10 O          32.4580    1.0530    6.9270 O.2     1  UNL1       -0.1693
     11 C          30.2570   -0.2330    5.9620 C.3     1  UNL1        0.1078
     12 C          29.6810    0.2030    4.6120 C.3     1  UNL1        0.1583
     13 O          30.6660    0.9590    3.9030 O.3     1  UNL1       -0.3780
     14 C          29.2760   -1.0210    3.7880 C.3     1  UNL1       -0.0259
     15 C          28.4490    1.0870    4.8230 C.2     1  UNL1        0.2503
     16 O          27.4440    0.6410    5.3760 O.2     1  UNL1       -0.2723
     17 N          28.6250    2.3570    4.4660 N.am    1  UNL1       -0.2831
     18 C          27.7060    3.3220    4.5180 C.ar    1  UNL1        0.0341
     19 C          26.3660    3.0880    4.8190 C.ar    1  UNL1       -0.0276
     20 C          28.0950    4.6030    4.1420 C.ar    1  UNL1       -0.0392
     21 C          27.1500    5.6220    4.0830 C.ar    1  UNL1       -0.0421
     22 C          25.8150    5.3730    4.3880 C.ar    1  UNL1        0.0635
     23 C          24.9330    6.4990    4.3240 C.1     1  UNL1        0.0997
     24 N          24.2430    7.4020    4.2630 N.1     1  UNL1       -0.1909
     25 C          25.3950    4.0900    4.7550 C.ar    1  UNL1        0.0739
     26 C          23.9310    3.7310    5.0750 C.3     1  UNL1        0.4187
     27 F          23.7140    3.8720    6.3790 F       1  UNL1       -0.1659
     28 F          23.0300    4.4730    4.4370 F       1  UNL1       -0.1659
     29 F          23.6400    2.4740    4.7490 F       1  UNL1       -0.1659
     30 H          28.5965    1.9704    8.3329 H       1  UNL1        0.0637
     31 H          27.8364    1.6926   10.6190 H       1  UNL1        0.0647
     32 H          31.3610   -0.3979   11.5334 H       1  UNL1        0.0647
     33 H          32.1228   -0.1145    9.2500 H       1  UNL1        0.0637
     34 H          29.4727   -0.6942    6.5251 H       1  UNL1        0.0538
     35 H          31.0669   -0.8972    5.7433 H       1  UNL1        0.0538
     36 H          31.4539    0.4112    3.7615 H       1  UNL1        0.2109
     37 H          30.1306   -1.6463    3.6345 H       1  UNL1        0.0263
     38 H          28.8924   -0.7026    2.8412 H       1  UNL1        0.0263
     39 H          28.5218   -1.5701    4.3120 H       1  UNL1        0.0263
     40 H          29.5168    2.6074    4.1324 H       1  UNL1        0.1549
     41 H          26.0796    2.1372    5.1002 H       1  UNL1        0.0642
     42 H          29.0811    4.7970    3.9076 H       1  UNL1        0.0636
     43 H          27.4420    6.5734    3.8100 H       1  UNL1        0.0631
@<TRIPOS>BOND
     1     1     2   ar
     2     2     3   ar
     3     3     4    1
     4     3     5   ar
     5     5     6   ar
     6     1     7   ar
     7     6     7   ar
     8     7     8    1
     9     8     9    2
    10     8    10    2
    11     8    11    1
    12    11    12    1
    13    12    13    1
    14    12    14    1
    15    12    15    1
    16    15    16    2
    17    15    17   am
    18    17    18    1
    19    18    19   ar
    20    18    20   ar
    21    20    21   ar
    22    21    22   ar
    23    22    23    1
    24    23    24    3
    25    19    25   ar
    26    22    25   ar
    27    25    26    1
    28    26    27    1
    29    26    28    1
    30    26    29    1
    31     1    30    1
    32     2    31    1
    33     5    32    1
    34     6    33    1
    35    11    34    1
    36    11    35    1
    37    13    36    1
    38    14    37    1
    39    14    38    1
    40    14    39    1
    41    17    40    1
    42    19    41    1
    43    20    42    1
    44    21    43    1
