1Z95_198_A_501
     RDKit          3D

 43 44  0  0  0  0  0  0  0  0999 V2000
    1.3261    2.8878    3.5429 C   0  0  0  0  0  0  0  0  0  0  0  0
    2.1781    2.8472    4.6512 C   0  0  0  0  0  0  0  0  0  0  0  0
    1.8981    1.9888    5.7189 C   0  0  0  0  0  0  0  0  0  0  0  0
    2.7254    1.9494    6.7923 F   0  0  0  0  0  0  0  0  0  0  0  0
    0.7670    1.1678    5.6771 C   0  0  0  0  0  0  0  0  0  0  0  0
   -0.0865    1.2066    4.5698 C   0  0  0  0  0  0  0  0  0  0  0  0
    0.1855    2.0728    3.5006 C   0  0  0  0  0  0  0  0  0  0  0  0
   -0.8749    2.1083    2.0958 S   0  0  0  0  0  6  0  0  0  0  0  0
   -2.2716    1.7543    2.5248 O   0  0  0  0  0  0  0  0  0  0  0  0
   -0.8795    3.4968    1.5216 O   0  0  0  0  0  0  0  0  0  0  0  0
   -0.2600    0.9136    0.9046 C   0  0  0  0  0  0  0  0  0  0  0  0
   -1.0585    0.8224   -0.4278 C   0  0  1  0  0  0  0  0  0  0  0  0
   -2.4311    0.6549   -0.1505 O   0  0  0  0  0  0  0  0  0  0  0  0
   -0.8196    2.0593   -1.3229 C   0  0  0  0  0  0  0  0  0  0  0  0
   -0.5891   -0.3923   -1.2061 C   0  0  0  0  0  0  0  0  0  0  0  0
    0.6272   -0.7295   -1.1691 O   0  0  0  0  0  0  0  0  0  0  0  0
   -1.4958   -1.0856   -2.0809 N   0  0  0  0  0  0  0  0  0  0  0  0
   -1.2290   -2.3803   -2.6472 C   0  0  0  0  0  0  0  0  0  0  0  0
   -0.5093   -3.3562   -1.9356 C   0  0  0  0  0  0  0  0  0  0  0  0
   -1.7457   -2.6955   -3.9089 C   0  0  0  0  0  0  0  0  0  0  0  0
   -1.5191   -3.9507   -4.4729 C   0  0  0  0  0  0  0  0  0  0  0  0
   -0.7825   -4.9183   -3.7791 C   0  0  0  0  0  0  0  0  0  0  0  0
   -0.5771   -6.2037   -4.4043 C   0  0  0  0  0  0  0  0  0  0  0  0
   -0.4127   -7.2337   -4.9057 N   0  0  0  0  0  0  0  0  0  0  0  0
   -0.2685   -4.6288   -2.4923 C   0  0  0  0  0  0  0  0  0  0  0  0
    0.5143   -5.6697   -1.7158 C   0  0  0  0  0  0  0  0  0  0  0  0
    0.9453   -5.1865   -0.4921 F   0  0  0  0  0  0  0  0  0  0  0  0
    1.6255   -6.0541   -2.4446 F   0  0  0  0  0  0  0  0  0  0  0  0
   -0.2845   -6.7760   -1.4896 F   0  0  0  0  0  0  0  0  0  0  0  0
    1.5576    3.5505    2.7187 H   0  0  0  0  0  0  0  0  0  0  0  0
    3.0561    3.4795    4.6803 H   0  0  0  0  0  0  0  0  0  0  0  0
    0.5522    0.4992    6.5007 H   0  0  0  0  0  0  0  0  0  0  0  0
   -0.9544    0.5601    4.5456 H   0  0  0  0  0  0  0  0  0  0  0  0
    0.8040    1.1570    0.6938 H   0  0  0  0  0  0  0  0  0  0  0  0
   -0.2774   -0.0782    1.4071 H   0  0  0  0  0  0  0  0  0  0  0  0
   -2.8338    1.5445    0.0255 H   0  0  0  0  0  0  0  0  0  0  0  0
    0.2664    2.2045   -1.5100 H   0  0  0  0  0  0  0  0  0  0  0  0
   -1.2236    2.9821   -0.8628 H   0  0  0  0  0  0  0  0  0  0  0  0
   -1.3305    1.9291   -2.3015 H   0  0  0  0  0  0  0  0  0  0  0  0
   -2.3569   -0.5825   -2.3939 H   0  0  0  0  0  0  0  0  0  0  0  0
   -0.1605   -3.1281   -0.9378 H   0  0  0  0  0  0  0  0  0  0  0  0
   -2.3184   -1.9611   -4.4615 H   0  0  0  0  0  0  0  0  0  0  0  0
   -1.9219   -4.1682   -5.4552 H   0  0  0  0  0  0  0  0  0  0  0  0
  1  2  2  0
  2  3  1  0
  3  4  1  0
  3  5  2  0
  5  6  1  0
  1  7  1  0
  6  7  2  0
  7  8  1  0
  8  9  2  0
  8 10  2  0
  8 11  1  0
 11 12  1  0
 12 13  1  1
 12 14  1  0
 12 15  1  0
 15 16  2  0
 15 17  1  0
 17 18  1  0
 18 19  2  0
 18 20  1  0
 20 21  2  0
 21 22  1  0
 22 23  1  0
 23 24  3  0
 19 25  1  0
 22 25  2  0
 25 26  1  0
 26 27  1  0
 26 28  1  0
 26 29  1  0
  1 30  1  0
  2 31  1  0
  5 32  1  0
  6 33  1  0
 11 34  1  0
 11 35  1  0
 13 36  1  0
 14 37  1  0
 14 38  1  0
 14 39  1  0
 17 40  1  0
 19 41  1  0
 20 42  1  0
 21 43  1  0
M  END
