1LRH_NLA_D_8190
     RDKit          3D

 14 15  0  0  0  0  0  0  0  0999 V2000
   42.3816   54.7204   53.4535 C   0  0  0  0  0  0  0  0  0  0  0  0
   43.3894   55.4673   54.0728 C   0  0  0  0  0  0  0  0  0  0  0  0
   43.5414   55.4771   55.4976 C   0  0  0  0  0  0  0  0  0  0  0  0
   42.6393   54.6938   56.2537 C   0  0  0  0  0  0  0  0  0  0  0  0
   41.6537   53.9484   55.6960 C   0  0  0  0  0  0  0  0  0  0  0  0
   41.4978   53.9294   54.3006 C   0  0  0  0  0  0  0  0  0  0  0  0
   40.4867   53.1504   53.6372 C   0  0  0  0  0  0  0  0  0  0  0  0
   40.3537   53.1847   52.2622 C   0  0  0  0  0  0  0  0  0  0  0  0
   41.2148   53.9366   51.4423 C   0  0  0  0  0  0  0  0  0  0  0  0
   42.2056   54.7075   52.0061 C   0  0  0  0  0  0  0  0  0  0  0  0
   44.3451   56.3562   53.2313 C   0  0  0  0  0  0  0  0  0  0  0  0
   44.8591   57.4818   54.0645 C   0  0  0  0  0  0  0  0  0  0  0  0
   44.4204   58.7105   53.9797 O   0  0  0  0  0  0  0  0  0  0  0  0
   45.7238   57.0439   54.9679 O   0  0  0  0  0  0  0  0  0  0  0  0
  1  2  2  0
  2  3  1  0
  3  4  2  0
  4  5  1  0
  1  6  1  0
  5  6  2  0
  6  7  1  0
  7  8  2  0
  8  9  1  0
  1 10  1  0
  9 10  2  0
  2 11  1  0
 11 12  1  0
 12 13  2  0
 12 14  1  0
M  END
