7ES1_UDP_A_501
     RDKit          3D

 39 40  0  0  0  0  0  0  0  0999 V2000
    8.2207    3.2270   26.1015 N   0  0  0  0  0  0  0  0  0  0  0  0
    7.4478    3.2427   27.2372 C   0  0  0  0  0  0  0  0  0  0  0  0
    7.9489    3.7379   28.4032 N   0  0  0  0  0  0  0  0  0  0  0  0
    9.2101    4.2383   28.4694 C   0  0  0  0  0  0  0  0  0  0  0  0
   10.0085    4.2531   27.3314 C   0  0  0  0  0  0  0  0  0  0  0  0
    9.4875    3.7455   26.1447 C   0  0  0  0  0  0  0  0  0  0  0  0
    6.2666    2.8001   27.2165 O   0  0  0  0  0  0  0  0  0  0  0  0
    9.6556    4.6914   29.5574 O   0  0  0  0  0  0  0  0  0  0  0  0
    7.6759    2.7234   24.8233 C   0  0  1  0  0  0  0  0  0  0  0  0
    6.6273    3.6817   24.2651 C   0  0  2  0  0  0  0  0  0  0  0  0
    5.3316    3.4555   24.7710 O   0  0  0  0  0  0  0  0  0  0  0  0
    6.7384    3.4675   22.7757 C   0  0  1  0  0  0  0  0  0  0  0  0
    8.2041    3.0374   22.6175 C   0  0  2  0  0  0  0  0  0  0  0  0
    8.7006    2.5797   23.8620 O   0  0  0  0  0  0  0  0  0  0  0  0
    5.8839    2.4353   22.3524 O   0  0  0  0  0  0  0  0  0  0  0  0
    9.0777    4.1951   22.1206 C   0  0  1  0  0  0  0  0  0  0  0  0
   10.4296    3.8998   22.3837 O   0  0  0  0  0  0  0  0  0  0  0  0
   11.0707    5.1469   23.3526 P   0  0  2  0  0  5  0  0  0  0  0  0
   10.5072    5.0011   24.7484 O   0  0  0  0  0  0  0  0  0  0  0  0
   10.5976    6.6431   22.7127 O   0  0  0  0  0  0  0  0  0  0  0  0
   12.7678    5.0038   23.4031 O   0  0  0  0  0  0  0  0  0  0  0  0
   13.4273    6.5031   22.9417 P   0  0  2  0  0  5  0  0  0  0  0  0
   14.2633    7.0340   24.0840 O   0  0  0  0  0  0  0  0  0  0  0  0
   12.2047    7.6223   22.5914 O   0  0  0  0  0  0  0  0  0  0  0  0
   14.4229    6.3061   21.5867 O   0  0  0  0  0  0  0  0  0  0  0  0
    7.3513    3.7381   29.2613 H   0  0  0  0  0  0  0  0  0  0  0  0
   11.0121    4.6585   27.3595 H   0  0  0  0  0  0  0  0  0  0  0  0
   10.1069    3.7741   25.2577 H   0  0  0  0  0  0  0  0  0  0  0  0
    7.2353    1.7106   24.9639 H   0  0  0  0  0  0  0  0  0  0  0  0
    6.9181    4.7316   24.4943 H   0  0  0  0  0  0  0  0  0  0  0  0
    4.9371    2.6763   24.3005 H   0  0  0  0  0  0  0  0  0  0  0  0
    6.4961    4.4110   22.2314 H   0  0  0  0  0  0  0  0  0  0  0  0
    8.2816    2.2085   21.8789 H   0  0  0  0  0  0  0  0  0  0  0  0
    6.1610    2.2014   21.4280 H   0  0  0  0  0  0  0  0  0  0  0  0
    8.9183    4.3116   21.0247 H   0  0  0  0  0  0  0  0  0  0  0  0
    8.7588    5.1266   22.6426 H   0  0  0  0  0  0  0  0  0  0  0  0
   10.5179    7.2402   23.4988 H   0  0  0  0  0  0  0  0  0  0  0  0
   11.9849    8.0374   23.4629 H   0  0  0  0  0  0  0  0  0  0  0  0
   15.3452    6.3944   21.9358 H   0  0  0  0  0  0  0  0  0  0  0  0
  1  2  1  0
  2  3  1  0
  3  4  1  0
  4  5  1  0
  1  6  1  0
  5  6  2  0
  2  7  2  0
  4  8  2  0
  9  1  1  0
  9 10  1  0
 10 11  1  0
 10 12  1  0
 12 13  1  0
  9 14  1  0
 13 14  1  0
 12 15  1  0
 13 16  1  0
 16 17  1  0
 18 17  1  6
 18 19  2  0
 18 20  1  0
 18 21  1  0
 22 21  1  1
 22 23  2  0
 22 24  1  0
 22 25  1  0
  3 26  1  0
  5 27  1  0
  6 28  1  0
  9 29  1  1
 10 30  1  6
 11 31  1  0
 12 32  1  6
 13 33  1  6
 15 34  1  0
 16 35  1  6
 16 36  1  0
 20 37  1  0
 24 38  1  0
 25 39  1  0
M  END
