7MYU_ZR7_A_401
     RDKit          3D

 55 59  0  0  0  0  0  0  0  0999 V2000
   49.3546   44.7872   79.7674 O   0  0  0  0  0  0  0  0  0  0  0  0
   40.6728   43.5566   80.7094 C   0  0  0  0  0  0  0  0  0  0  0  0
   40.4554   45.9070   80.9043 C   0  0  0  0  0  0  0  0  0  0  0  0
   37.8572   48.6925   84.5800 C   0  0  0  0  0  0  0  0  0  0  0  0
   40.1564   47.0606   81.7041 N   0  0  0  0  0  0  0  0  0  0  0  0
   40.1036   47.0307   83.1549 C   0  0  1  0  0  0  0  0  0  0  0  0
   39.9728   48.3877   81.1412 C   0  0  1  0  0  0  0  0  0  0  0  0
   39.7153   49.3307   82.3292 C   0  0  2  0  0  0  0  0  0  0  0  0
   40.1110   48.5111   83.6061 C   0  0  2  0  0  0  0  0  0  0  0  0
   44.5393   46.0035   83.7250 O   0  0  0  0  0  0  0  0  0  0  0  0
   45.2935   46.8129   83.1162 C   0  0  0  0  0  0  0  0  0  0  0  0
   46.3567   46.2940   82.2283 C   0  0  0  0  0  0  0  0  0  0  0  0
   46.6735   44.9700   82.2461 N   0  0  0  0  0  0  0  0  0  0  0  0
   47.6481   44.4582   81.4499 C   0  0  0  0  0  0  0  0  0  0  0  0
   48.3507   45.3065   80.5916 C   0  0  0  0  0  0  0  0  0  0  0  0
   49.1204   44.4049   78.4165 C   0  0  1  0  0  0  0  0  0  0  0  0
   48.0408   46.6319   80.5705 N   0  0  0  0  0  0  0  0  0  0  0  0
   47.0639   47.1444   81.3637 C   0  0  0  0  0  0  0  0  0  0  0  0
   45.1373   48.2291   83.3164 N   0  0  0  0  0  0  0  0  0  0  0  0
   43.9566   48.8238   83.8831 C   0  0  0  0  0  0  0  0  0  0  0  0
   44.0843   49.8651   84.8074 C   0  0  0  0  0  0  0  0  0  0  0  0
   42.9499   50.4727   85.3430 C   0  0  0  0  0  0  0  0  0  0  0  0
   41.6727   50.0402   84.9756 C   0  0  0  0  0  0  0  0  0  0  0  0
   40.6051   50.7073   85.4822 F   0  0  0  0  0  0  0  0  0  0  0  0
   42.6740   48.4149   83.4836 C   0  0  0  0  0  0  0  0  0  0  0  0
   41.5100   48.9632   84.0700 C   0  0  0  0  0  0  0  0  0  0  0  0
   39.1494   48.6637   84.7128 N   0  0  0  0  0  0  0  0  0  0  0  0
   37.0349   48.9272   85.7201 N   0  0  0  0  0  0  0  0  0  0  0  0
   37.1113   48.5990   82.9519 S   0  0  0  0  0  0  0  0  0  0  0  0
   38.2636   49.8642   82.3349 C   0  0  2  0  0  0  0  0  0  0  0  0
   40.8545   46.0556   79.6102 N   0  0  0  0  0  0  0  0  0  0  0  0
   41.1697   44.9789   78.8464 C   0  0  0  0  0  0  0  0  0  0  0  0
   41.0853   43.6958   79.3848 C   0  0  0  0  0  0  0  0  0  0  0  0
   41.3866   42.6072   78.6348 F   0  0  0  0  0  0  0  0  0  0  0  0
   40.3697   44.6591   81.4426 N   0  0  0  0  0  0  0  0  0  0  0  0
   40.5971   42.5747   81.1573 H   0  0  0  0  0  0  0  0  0  0  0  0
   39.1730   46.5052   83.4631 H   0  0  0  0  0  0  0  0  0  0  0  0
   40.9561   46.4528   83.5748 H   0  0  0  0  0  0  0  0  0  0  0  0
   40.9016   48.6904   80.6092 H   0  0  0  0  0  0  0  0  0  0  0  0
   39.1326   48.3754   80.4135 H   0  0  0  0  0  0  0  0  0  0  0  0
   40.3726   50.2229   82.2114 H   0  0  0  0  0  0  0  0  0  0  0  0
   47.8760   43.4009   81.4855 H   0  0  0  0  0  0  0  0  0  0  0  0
   49.2847   43.3129   78.2967 H   0  0  0  0  0  0  0  0  0  0  0  0
   48.0803   44.6638   78.1245 H   0  0  0  0  0  0  0  0  0  0  0  0
   49.8263   44.9489   77.7553 H   0  0  0  0  0  0  0  0  0  0  0  0
   46.8475   48.2037   81.3203 H   0  0  0  0  0  0  0  0  0  0  0  0
   45.9590   48.8493   83.1389 H   0  0  0  0  0  0  0  0  0  0  0  0
   45.0657   50.2098   85.1084 H   0  0  0  0  0  0  0  0  0  0  0  0
   43.0613   51.2925   86.0414 H   0  0  0  0  0  0  0  0  0  0  0  0
   42.5908   47.6840   82.6923 H   0  0  0  0  0  0  0  0  0  0  0  0
   36.5172   49.8287   85.8180 H   0  0  0  0  0  0  0  0  0  0  0  0
   36.9386   48.1999   86.4640 H   0  0  0  0  0  0  0  0  0  0  0  0
   37.9561   50.1762   81.3141 H   0  0  0  0  0  0  0  0  0  0  0  0
   38.1995   50.7687   82.9804 H   0  0  0  0  0  0  0  0  0  0  0  0
   41.4810   45.1201   77.8181 H   0  0  0  0  0  0  0  0  0  0  0  0
  3  5  1  0
  5  6  1  0
  5  7  1  0
  8  7  1  0
  6  9  1  0
  8  9  1  0
 10 11  2  0
 11 12  1  0
 12 13  2  0
 13 14  1  0
 14 15  2  0
  1 15  1  0
  1 16  1  0
 15 17  1  0
 12 18  1  0
 17 18  2  0
 11 19  1  0
 19 20  1  0
 20 21  2  0
 21 22  1  0
 22 23  2  0
 23 24  1  0
 20 25  1  0
 23 26  1  0
 25 26  2  0
  9 26  1  1
  9 27  1  0
  4 27  2  0
  4 28  1  0
  4 29  1  0
  8 30  1  0
 29 30  1  0
  3 31  1  0
 31 32  2  0
 32 33  1  0
  2 33  2  0
 33 34  1  0
  3 35  2  0
  2 35  1  0
  2 36  1  0
  6 37  1  6
  6 38  1  0
  7 39  1  6
  7 40  1  0
  8 41  1  6
 14 42  1  0
 16 43  1  1
 16 44  1  0
 16 45  1  0
 18 46  1  0
 19 47  1  0
 21 48  1  0
 22 49  1  0
 25 50  1  0
 28 51  1  0
 28 52  1  0
 30 53  1  6
 30 54  1  0
 32 55  1  0
M  END
