1PMN_984_A_501
     RDKit          3D

 33 37  0  0  0  0  0  0  0  0999 V2000
   22.7880   10.4866   30.5948 N   0  0  0  0  0  0  0  0  0  0  0  0
   23.0420   11.7892   30.5016 C   0  0  0  0  0  0  0  0  0  0  0  0
   22.2272   12.3957   31.3858 N   0  0  0  0  0  0  0  0  0  0  0  0
   21.4738   11.4837   32.0229 C   0  0  0  0  0  0  0  0  0  0  0  0
   21.8213   10.2629   31.5283 C   0  0  0  0  0  0  0  0  0  0  0  0
   23.4536    9.4439   29.8104 C   0  0  0  0  0  0  0  0  0  0  0  0
   24.8866    9.3385   30.3005 C   0  0  0  0  0  0  0  0  0  0  0  0
   25.6796    8.3410   29.4892 C   0  0  0  0  0  0  0  0  0  0  0  0
   23.9980   12.5284   29.6400 C   0  0  1  0  0  0  0  0  0  0  0  0
   23.3869   13.7816   29.0561 C   0  0  0  0  0  0  0  0  0  0  0  0
   24.5560   14.7287   28.7758 C   0  0  0  0  0  0  0  0  0  0  0  0
   25.0263   15.3498   29.9937 N   0  0  0  0  0  0  0  0  0  0  0  0
   24.8874   14.3989   31.0571 C   0  0  0  0  0  0  0  0  0  0  0  0
   25.1751   13.0123   30.4800 C   0  0  0  0  0  0  0  0  0  0  0  0
   24.2616   16.5582   30.2110 C   0  0  0  0  0  0  0  0  0  0  0  0
   20.4916   11.8523   33.0384 C   0  0  0  0  0  0  0  0  0  0  0  0
   21.2523    8.9872   31.9443 C   0  0  0  0  0  0  0  0  0  0  0  0
   20.4394   11.2723   34.2876 C   0  0  0  0  0  0  0  0  0  0  0  0
   19.4917   11.6523   35.2209 C   0  0  0  0  0  0  0  0  0  0  0  0
   18.5651   12.6420   34.9020 C   0  0  0  0  0  0  0  0  0  0  0  0
   18.6028   13.2334   33.6561 C   0  0  0  0  0  0  0  0  0  0  0  0
   19.5514   12.8450   32.7372 C   0  0  0  0  0  0  0  0  0  0  0  0
   19.4522   10.8959   36.8011 Cl  0  0  0  0  0  0  0  0  0  0  0  0
   17.3441   13.1465   36.0761 Cl  0  0  0  0  0  0  0  0  0  0  0  0
   19.9655    8.8431   32.4114 C   0  0  0  0  0  0  0  0  0  0  0  0
   19.5448    7.5632   32.7749 C   0  0  0  0  0  0  0  0  0  0  0  0
   20.3822    6.4959   32.6697 N   0  0  0  0  0  0  0  0  0  0  0  0
   21.6272    6.6680   32.2122 C   0  0  0  0  0  0  0  0  0  0  0  0
   22.0433    7.8971   31.8590 N   0  0  0  0  0  0  0  0  0  0  0  0
   22.5304    5.5750   32.0851 N   0  0  0  0  0  0  0  0  0  0  0  0
   23.8786    5.7035   31.5760 C   0  0  2  0  0  0  0  0  0  0  0  0
   24.3608    4.4559   30.8801 C   0  0  0  0  0  0  0  0  0  0  0  0
   25.0183    4.9929   32.1571 C   0  0  0  0  0  0  0  0  0  0  0  0
  1  2  1  0
  2  3  2  0
  3  4  1  0
  1  5  1  0
  4  5  2  0
  1  6  1  0
  6  7  1  0
  7  8  1  0
  9  2  1  1
  9 10  1  0
 10 11  1  0
 11 12  1  0
 12 13  1  0
  9 14  1  0
 13 14  1  0
 12 15  1  0
  4 16  1  0
  5 17  1  0
 16 18  2  0
 18 19  1  0
 19 20  2  0
 20 21  1  0
 16 22  1  0
 21 22  2  0
 19 23  1  0
 20 24  1  0
 17 25  2  0
 25 26  1  0
 26 27  2  0
 27 28  1  0
 17 29  1  0
 28 29  2  0
 28 30  1  0
 31 30  1  1
 31 32  1  0
 31 33  1  0
 32 33  1  0
M  END
$$$$
