1PMN_984_A_501
     RDKit          3D

 33 37  0  0  0  0  0  0  0  0999 V2000
   22.9377   10.5572   30.9867 N   0  0  0  0  0  0  0  0  0  0  0  0
   23.2228   11.8533   30.8919 C   0  0  0  0  0  0  0  0  0  0  0  0
   22.3878   12.4851   31.7388 N   0  0  0  0  0  0  0  0  0  0  0  0
   21.5914   11.5952   32.3544 C   0  0  0  0  0  0  0  0  0  0  0  0
   21.9315   10.3628   31.8842 C   0  0  0  0  0  0  0  0  0  0  0  0
   23.6106    9.4933   30.2377 C   0  0  0  0  0  0  0  0  0  0  0  0
   23.2236    9.6383   28.7770 C   0  0  0  0  0  0  0  0  0  0  0  0
   24.0597    8.7467   27.8893 C   0  0  0  0  0  0  0  0  0  0  0  0
   24.2266   12.5640   30.0613 C   0  0  1  0  0  0  0  0  0  0  0  0
   23.7041   13.8838   29.5417 C   0  0  0  0  0  0  0  0  0  0  0  0
   24.9366   14.7587   29.3005 C   0  0  0  0  0  0  0  0  0  0  0  0
   25.4525   15.2856   30.5440 N   0  0  0  0  0  0  0  0  0  0  0  0
   25.2492   14.2967   31.5614 C   0  0  0  0  0  0  0  0  0  0  0  0
   25.4369   12.9227   30.9167 C   0  0  0  0  0  0  0  0  0  0  0  0
   24.7755   16.5329   30.8234 C   0  0  0  0  0  0  0  0  0  0  0  0
   20.5791   11.9941   33.3281 C   0  0  0  0  0  0  0  0  0  0  0  0
   21.3200    9.1033   32.2893 C   0  0  0  0  0  0  0  0  0  0  0  0
   20.4855   11.4483   34.5902 C   0  0  0  0  0  0  0  0  0  0  0  0
   19.5103   11.8561   35.4826 C   0  0  0  0  0  0  0  0  0  0  0  0
   18.5979   12.8394   35.1080 C   0  0  0  0  0  0  0  0  0  0  0  0
   18.6770   13.3967   33.8484 C   0  0  0  0  0  0  0  0  0  0  0  0
   19.6525   12.9809   32.9707 C   0  0  0  0  0  0  0  0  0  0  0  0
   19.4183   11.1429   37.0806 Cl  0  0  0  0  0  0  0  0  0  0  0  0
   17.3424   13.3791   36.2289 Cl  0  0  0  0  0  0  0  0  0  0  0  0
   20.0251    8.9966   32.7439 C   0  0  0  0  0  0  0  0  0  0  0  0
   19.5621    7.7286   33.0978 C   0  0  0  0  0  0  0  0  0  0  0  0
   20.3675    6.6367   32.9954 N   0  0  0  0  0  0  0  0  0  0  0  0
   21.6213    6.7726   32.5500 C   0  0  0  0  0  0  0  0  0  0  0  0
   22.0781    7.9899   32.2062 N   0  0  0  0  0  0  0  0  0  0  0  0
   22.4919    5.6530   32.4262 N   0  0  0  0  0  0  0  0  0  0  0  0
   23.8344    5.7359   31.8932 C   0  0  2  0  0  0  0  0  0  0  0  0
   23.9859    5.0132   30.5786 C   0  0  0  0  0  0  0  0  0  0  0  0
   24.7417    4.5887   31.8435 C   0  0  0  0  0  0  0  0  0  0  0  0
  1  2  1  0
  2  3  2  0
  3  4  1  0
  1  5  1  0
  4  5  2  0
  1  6  1  0
  6  7  1  0
  7  8  1  0
  9  2  1  1
  9 10  1  0
 10 11  1  0
 11 12  1  0
 12 13  1  0
  9 14  1  0
 13 14  1  0
 12 15  1  0
  4 16  1  0
  5 17  1  0
 16 18  2  0
 18 19  1  0
 19 20  2  0
 20 21  1  0
 16 22  1  0
 21 22  2  0
 19 23  1  0
 20 24  1  0
 17 25  2  0
 25 26  1  0
 26 27  2  0
 27 28  1  0
 17 29  1  0
 28 29  2  0
 28 30  1  0
 31 30  1  1
 31 32  1  0
 31 33  1  0
 32 33  1  0
M  END
$$$$
