1PMN_984_A_501
     RDKit          3D

 33 37  0  0  0  0  0  0  0  0999 V2000
   22.8828   10.6143   30.8591 N   0  0  0  0  0  0  0  0  0  0  0  0
   23.1042   11.9161   30.6981 C   0  0  0  0  0  0  0  0  0  0  0  0
   22.2619   12.5478   31.5378 N   0  0  0  0  0  0  0  0  0  0  0  0
   21.5237   11.6521   32.2143 C   0  0  0  0  0  0  0  0  0  0  0  0
   21.9095   10.4160   31.7914 C   0  0  0  0  0  0  0  0  0  0  0  0
   23.5860    9.5486   30.1412 C   0  0  0  0  0  0  0  0  0  0  0  0
   25.0452    9.5937   30.5572 C   0  0  0  0  0  0  0  0  0  0  0  0
   25.8589    8.5384   29.8458 C   0  0  0  0  0  0  0  0  0  0  0  0
   24.0526   12.6327   29.8093 C   0  0  1  0  0  0  0  0  0  0  0  0
   23.4297   13.8590   29.1823 C   0  0  0  0  0  0  0  0  0  0  0  0
   24.5901   14.8058   28.8668 C   0  0  0  0  0  0  0  0  0  0  0  0
   25.0565   15.4738   30.0611 N   0  0  0  0  0  0  0  0  0  0  0  0
   24.9273   14.5600   31.1578 C   0  0  0  0  0  0  0  0  0  0  0  0
   25.2265   13.1563   30.6297 C   0  0  0  0  0  0  0  0  0  0  0  0
   24.2814   16.6823   30.2366 C   0  0  0  0  0  0  0  0  0  0  0  0
   20.5184   12.0490   33.1960 C   0  0  0  0  0  0  0  0  0  0  0  0
   21.3680    9.1500   32.2695 C   0  0  0  0  0  0  0  0  0  0  0  0
   20.4689   11.5425   34.4768 C   0  0  0  0  0  0  0  0  0  0  0  0
   19.4987   11.9470   35.3761 C   0  0  0  0  0  0  0  0  0  0  0  0
   18.5460   12.8865   34.9894 C   0  0  0  0  0  0  0  0  0  0  0  0
   18.5806   13.4041   33.7110 C   0  0  0  0  0  0  0  0  0  0  0  0
   19.5517   12.9921   32.8267 C   0  0  0  0  0  0  0  0  0  0  0  0
   19.4634   11.2844   36.9980 Cl  0  0  0  0  0  0  0  0  0  0  0  0
   17.2959   13.4209   36.1188 Cl  0  0  0  0  0  0  0  0  0  0  0  0
   20.0865    9.0024   32.7501 C   0  0  0  0  0  0  0  0  0  0  0  0
   19.6931    7.7328   33.1750 C   0  0  0  0  0  0  0  0  0  0  0  0
   20.5511    6.6784   33.1146 N   0  0  0  0  0  0  0  0  0  0  0  0
   21.7903    6.8536   32.6426 C   0  0  0  0  0  0  0  0  0  0  0  0
   22.1801    8.0729   32.2303 N   0  0  0  0  0  0  0  0  0  0  0  0
   22.7145    5.7739   32.5611 N   0  0  0  0  0  0  0  0  0  0  0  0
   24.0738    5.9156   32.0865 C   0  0  2  0  0  0  0  0  0  0  0  0
   24.2302    5.5240   30.6389 C   0  0  0  0  0  0  0  0  0  0  0  0
   24.9304    4.7703   31.7760 C   0  0  0  0  0  0  0  0  0  0  0  0
  1  2  1  0
  2  3  2  0
  3  4  1  0
  1  5  1  0
  4  5  2  0
  1  6  1  0
  6  7  1  0
  7  8  1  0
  9  2  1  1
  9 10  1  0
 10 11  1  0
 11 12  1  0
 12 13  1  0
  9 14  1  0
 13 14  1  0
 12 15  1  0
  4 16  1  0
  5 17  1  0
 16 18  2  0
 18 19  1  0
 19 20  2  0
 20 21  1  0
 16 22  1  0
 21 22  2  0
 19 23  1  0
 20 24  1  0
 17 25  2  0
 25 26  1  0
 26 27  2  0
 27 28  1  0
 17 29  1  0
 28 29  2  0
 28 30  1  0
 31 30  1  1
 31 32  1  0
 31 33  1  0
 32 33  1  0
M  END
$$$$
