1PMN_984_A_501
     RDKit          3D

 33 37  0  0  0  0  0  0  0  0999 V2000
   22.8377   10.4498   30.8151 N   0  0  0  0  0  0  0  0  0  0  0  0
   23.1273   11.7468   30.7525 C   0  0  0  0  0  0  0  0  0  0  0  0
   22.3846   12.3444   31.7037 N   0  0  0  0  0  0  0  0  0  0  0  0
   21.6405   11.4326   32.3518 C   0  0  0  0  0  0  0  0  0  0  0  0
   21.9199   10.2210   31.7954 C   0  0  0  0  0  0  0  0  0  0  0  0
   23.4235    9.4171   29.9572 C   0  0  0  0  0  0  0  0  0  0  0  0
   24.8371    9.1556   30.4451 C   0  0  0  0  0  0  0  0  0  0  0  0
   25.6722    8.4714   29.3886 C   0  0  0  0  0  0  0  0  0  0  0  0
   24.0552   12.4882   29.8626 C   0  0  1  0  0  0  0  0  0  0  0  0
   23.4072   13.7126   29.2574 C   0  0  0  0  0  0  0  0  0  0  0  0
   24.5499   14.6805   28.9412 C   0  0  0  0  0  0  0  0  0  0  0  0
   25.0193   15.3408   30.1386 N   0  0  0  0  0  0  0  0  0  0  0  0
   24.9157   14.4119   31.2253 C   0  0  0  0  0  0  0  0  0  0  0  0
   25.2300   13.0194   30.6767 C   0  0  0  0  0  0  0  0  0  0  0  0
   24.2283   16.5353   30.3373 C   0  0  0  0  0  0  0  0  0  0  0  0
   20.7307   11.7928   33.4355 C   0  0  0  0  0  0  0  0  0  0  0  0
   21.3355    8.9484   32.1995 C   0  0  0  0  0  0  0  0  0  0  0  0
   19.8550   12.8549   33.3679 C   0  0  0  0  0  0  0  0  0  0  0  0
   19.0090   13.1611   34.4187 C   0  0  0  0  0  0  0  0  0  0  0  0
   19.0343   12.3856   35.5753 C   0  0  0  0  0  0  0  0  0  0  0  0
   19.9048   11.3185   35.6602 C   0  0  0  0  0  0  0  0  0  0  0  0
   20.7411   11.0258   34.6067 C   0  0  0  0  0  0  0  0  0  0  0  0
   17.9063   14.5179   34.3012 Cl  0  0  0  0  0  0  0  0  0  0  0  0
   17.9637   12.7546   36.9323 Cl  0  0  0  0  0  0  0  0  0  0  0  0
   20.0624    8.8217   32.7076 C   0  0  0  0  0  0  0  0  0  0  0  0
   19.6242    7.5429   33.0539 C   0  0  0  0  0  0  0  0  0  0  0  0
   20.4320    6.4598   32.8931 N   0  0  0  0  0  0  0  0  0  0  0  0
   21.6643    6.6151   32.3967 C   0  0  0  0  0  0  0  0  0  0  0  0
   22.0970    7.8430   32.0596 N   0  0  0  0  0  0  0  0  0  0  0  0
   22.5365    5.5054   32.2111 N   0  0  0  0  0  0  0  0  0  0  0  0
   23.8760    5.6186   31.6762 C   0  0  2  0  0  0  0  0  0  0  0  0
   23.9275    5.4128   30.1835 C   0  0  0  0  0  0  0  0  0  0  0  0
   24.6286    4.4705   31.1692 C   0  0  0  0  0  0  0  0  0  0  0  0
  1  2  1  0
  2  3  2  0
  3  4  1  0
  1  5  1  0
  4  5  2  0
  1  6  1  0
  6  7  1  0
  7  8  1  0
  9  2  1  1
  9 10  1  0
 10 11  1  0
 11 12  1  0
 12 13  1  0
  9 14  1  0
 13 14  1  0
 12 15  1  0
  4 16  1  0
  5 17  1  0
 16 18  2  0
 18 19  1  0
 19 20  2  0
 20 21  1  0
 16 22  1  0
 21 22  2  0
 19 23  1  0
 20 24  1  0
 17 25  2  0
 25 26  1  0
 26 27  2  0
 27 28  1  0
 17 29  1  0
 28 29  2  0
 28 30  1  0
 31 30  1  1
 31 32  1  0
 31 33  1  0
 32 33  1  0
M  END
$$$$
