1PMN_984_A_501
     RDKit          3D

 33 37  0  0  0  0  0  0  0  0999 V2000
   29.0376   35.5437    6.8941 N   0  0  0  0  0  0  0  0  0  0  0  0
   28.8432   36.1850    8.0433 C   0  0  0  0  0  0  0  0  0  0  0  0
   27.7671   35.6127    8.6162 N   0  0  0  0  0  0  0  0  0  0  0  0
   27.2953   34.6270    7.8347 C   0  0  0  0  0  0  0  0  0  0  0  0
   28.0960   34.5723    6.7340 C   0  0  0  0  0  0  0  0  0  0  0  0
   30.1104   35.8369    5.9409 C   0  0  0  0  0  0  0  0  0  0  0  0
   31.3720   35.1544    6.4381 C   0  0  0  0  0  0  0  0  0  0  0  0
   32.5235   35.3482    5.4799 C   0  0  0  0  0  0  0  0  0  0  0  0
   29.5907   37.3080    8.6621 C   0  0  1  0  0  0  0  0  0  0  0  0
   28.9190   37.8160    9.9174 C   0  0  0  0  0  0  0  0  0  0  0  0
   30.0287   38.4451   10.7632 C   0  0  0  0  0  0  0  0  0  0  0  0
   30.8202   37.4304   11.4219 N   0  0  0  0  0  0  0  0  0  0  0  0
   30.9022   36.2972   10.5479 C   0  0  0  0  0  0  0  0  0  0  0  0
   30.9639   36.8219    9.1128 C   0  0  0  0  0  0  0  0  0  0  0  0
   30.1980   37.1228   12.6909 C   0  0  0  0  0  0  0  0  0  0  0  0
   26.1277   33.8302    8.2002 C   0  0  0  0  0  0  0  0  0  0  0  0
   27.9473   33.6396    5.6240 C   0  0  0  0  0  0  0  0  0  0  0  0
   25.3610   33.1447    7.2828 C   0  0  0  0  0  0  0  0  0  0  0  0
   24.2621   32.4004    7.6727 C   0  0  0  0  0  0  0  0  0  0  0  0
   23.9137   32.3352    9.0195 C   0  0  0  0  0  0  0  0  0  0  0  0
   24.6701   33.0152    9.9517 C   0  0  0  0  0  0  0  0  0  0  0  0
   25.7608   33.7521    9.5491 C   0  0  0  0  0  0  0  0  0  0  0  0
   23.3079   31.5394    6.4814 Cl  0  0  0  0  0  0  0  0  0  0  0  0
   22.5148   31.3911    9.5447 Cl  0  0  0  0  0  0  0  0  0  0  0  0
   27.9751   32.2711    5.7698 C   0  0  0  0  0  0  0  0  0  0  0  0
   27.8183   31.4911    4.6233 C   0  0  0  0  0  0  0  0  0  0  0  0
   27.6441   32.0685    3.4036 N   0  0  0  0  0  0  0  0  0  0  0  0
   27.6216   33.4013    3.2941 C   0  0  0  0  0  0  0  0  0  0  0  0
   27.7717   34.1628    4.3925 N   0  0  0  0  0  0  0  0  0  0  0  0
   27.4381   34.0411    2.0356 N   0  0  0  0  0  0  0  0  0  0  0  0
   27.5751   35.4670    1.8331 C   0  0  2  0  0  0  0  0  0  0  0  0
   27.8072   35.8315    0.3886 C   0  0  0  0  0  0  0  0  0  0  0  0
   28.8468   36.1012    1.4831 C   0  0  0  0  0  0  0  0  0  0  0  0
  1  2  1  0
  2  3  2  0
  3  4  1  0
  1  5  1  0
  4  5  2  0
  1  6  1  0
  6  7  1  0
  7  8  1  0
  9  2  1  1
  9 10  1  0
 10 11  1  0
 11 12  1  0
 12 13  1  0
  9 14  1  0
 13 14  1  0
 12 15  1  0
  4 16  1  0
  5 17  1  0
 16 18  2  0
 18 19  1  0
 19 20  2  0
 20 21  1  0
 16 22  1  0
 21 22  2  0
 19 23  1  0
 20 24  1  0
 17 25  2  0
 25 26  1  0
 26 27  2  0
 27 28  1  0
 17 29  1  0
 28 29  2  0
 28 30  1  0
 31 30  1  6
 31 32  1  0
 31 33  1  0
 32 33  1  0
M  END
$$$$
