7THI_PGA_A_301
     RDKit          3D

  9  8  0  0  0  0  0  0  0  0999 V2000
   43.7410   25.0058   84.8455 P   0  0  2  0  0  5  0  0  0  0  0  0
   43.5126   25.4107   86.4570 O   0  0  0  0  0  0  0  0  0  0  0  0
   45.1985   25.1641   84.4238 O   0  0  0  0  0  0  0  0  0  0  0  0
   42.7753   26.0411   83.9155 O   0  0  0  0  0  0  0  0  0  0  0  0
   43.3469   23.3728   84.5763 O   0  0  0  0  0  0  0  0  0  0  0  0
   42.2024   25.3581   86.8574 C   0  0  0  0  0  0  0  0  0  0  0  0
   42.0291   25.7243   88.2834 C   0  0  0  0  0  0  0  0  0  0  0  0
   42.4654   25.0211   89.2342 O   0  0  0  0  0  0  0  0  0  0  0  0
   41.3566   26.8938   88.6012 O   0  0  0  0  0  0  0  0  0  0  0  0
  1  2  1  0
  1  3  2  0
  1  4  1  6
  1  5  1  0
  6  2  1  1
  6  7  1  0
  7  8  2  0
  7  9  1  0
M  END
$$$$
