7WL4_JFU_A_202
     RDKit          3D

 34 38  0  0  0  0  0  0  0  0999 V2000
  -16.0058    7.8498   26.4470 F   0  0  0  0  0  0  0  0  0  0  0  0
  -15.2443    8.9165   26.3218 C   0  0  0  0  0  0  0  0  0  0  0  0
  -15.2789    9.7020   25.1710 C   0  0  0  0  0  0  0  0  0  0  0  0
  -14.4719   10.8098   25.0716 C   0  0  0  0  0  0  0  0  0  0  0  0
  -14.4533   11.5473   24.0161 F   0  0  0  0  0  0  0  0  0  0  0  0
  -13.6414   11.1534   26.1091 C   0  0  0  0  0  0  0  0  0  0  0  0
  -13.6048   10.3824   27.2498 C   0  0  0  0  0  0  0  0  0  0  0  0
  -14.3943    9.2571   27.3621 C   0  0  0  0  0  0  0  0  0  0  0  0
  -14.2860    8.2816   28.8124 S   0  0  1  0  0  0  0  0  0  0  0  0
  -14.0262    9.2419   29.9535 O   0  0  0  0  0  0  0  0  0  0  0  0
  -15.5558    7.4565   28.9655 O   0  0  0  0  0  0  0  0  0  0  0  0
  -12.9625    7.3164   28.6241 N   0  0  0  0  0  0  0  0  0  0  0  0
  -11.7490    7.8604   28.2951 C   0  0  0  0  0  0  0  0  0  0  0  0
  -11.2251    8.9889   28.9528 C   0  0  0  0  0  0  0  0  0  0  0  0
   -9.9600    9.4841   28.5779 C   0  0  0  0  0  0  0  0  0  0  0  0
   -9.2556    8.8806   27.6055 C   0  0  0  0  0  0  0  0  0  0  0  0
   -8.0459    9.1273   27.0579 N   0  0  0  0  0  0  0  0  0  0  0  0
   -7.2100   10.2762   27.4805 C   0  0  0  0  0  0  0  0  0  0  0  0
   -5.8238   10.2288   26.8330 C   0  0  0  0  0  0  0  0  0  0  0  0
   -7.8379    8.1883   26.1129 C   0  0  0  0  0  0  0  0  0  0  0  0
   -6.8139    8.1397   25.4175 O   0  0  0  0  0  0  0  0  0  0  0  0
   -8.9153    7.3469   26.0598 C   0  0  0  0  0  0  0  0  0  0  0  0
   -9.3018    6.2547   25.3449 C   0  0  0  0  0  0  0  0  0  0  0  0
   -9.7610    7.8052   27.0004 C   0  0  0  0  0  0  0  0  0  0  0  0
  -10.9707    7.2458   27.3030 C   0  0  0  0  0  0  0  0  0  0  0  0
  -11.3585    6.1608   26.5815 N   0  0  0  0  0  0  0  0  0  0  0  0
  -10.5540    5.6212   25.6313 C   0  0  0  0  0  0  0  0  0  0  0  0
  -11.0356    4.5265   24.9600 N   0  0  0  0  0  0  0  0  0  0  0  0
  -10.5281    4.1360   23.6677 C   0  0  0  0  0  0  0  0  0  0  0  0
  -10.7520    2.6537   23.4289 C   0  0  0  0  0  0  0  0  0  0  0  0
  -12.1580    2.2934   23.4570 N   0  0  0  0  0  0  0  0  0  0  0  0
  -12.3704    0.8990   23.1298 C   0  0  0  0  0  0  0  0  0  0  0  0
  -12.4893    2.4498   24.8980 C   0  0  0  0  0  0  0  0  0  0  0  0
  -12.3072    3.8959   25.3820 C   0  0  0  0  0  0  0  0  0  0  0  0
  1  2  1  0
  2  3  2  0
  3  4  1  0
  4  5  1  0
  4  6  2  0
  6  7  1  0
  2  8  1  0
  7  8  2  0
  8  9  1  0
  9 10  2  0
  9 11  2  0
  9 12  1  6
 12 13  1  0
 13 14  2  0
 14 15  1  0
 15 16  2  0
 16 17  1  0
 17 18  1  0
 18 19  1  0
 17 20  1  0
 20 21  2  0
 20 22  1  0
 22 23  2  0
 16 24  1  0
 22 24  1  0
 13 25  1  0
 24 25  2  0
 25 26  1  0
 26 27  2  0
 23 27  1  0
 27 28  1  0
 28 29  1  0
 29 30  1  0
 30 31  1  0
 31 32  1  0
 31 33  1  0
 33 34  1  0
 28 34  1  0
M  END
