1V4S_MRK_A_501
     RDKit          3D

 23 25  0  0  0  0  0  0  0  0999 V2000
   20.0783    2.2309   59.2577 S   0  0  0  0  0  0  0  0  0  0  0  0
   19.6358    0.8705   58.0816 C   0  0  0  0  0  0  0  0  0  0  0  0
   20.3285   -0.1887   58.5136 C   0  0  0  0  0  0  0  0  0  0  0  0
   21.0685    0.0404   59.5762 N   0  0  0  0  0  0  0  0  0  0  0  0
   21.2312    0.9916   60.2080 C   0  0  0  0  0  0  0  0  0  0  0  0
   21.9187    1.5623   61.3533 N   0  0  0  0  0  0  0  0  0  0  0  0
   22.5041    0.7561   62.3412 C   0  0  0  0  0  0  0  0  0  0  0  0
   22.2841   -0.4886   62.3548 O   0  0  0  0  0  0  0  0  0  0  0  0
   23.7443    0.4527   64.4238 C   0  0  0  0  0  0  0  0  0  0  0  0
   23.3720    1.2849   63.3769 C   0  0  0  0  0  0  0  0  0  0  0  0
   23.8536    2.5711   63.3870 C   0  0  0  0  0  0  0  0  0  0  0  0
   24.6804    3.0376   64.3949 C   0  0  0  0  0  0  0  0  0  0  0  0
   25.0561    2.2174   65.4399 C   0  0  0  0  0  0  0  0  0  0  0  0
   25.8663    2.6411   66.4467 F   0  0  0  0  0  0  0  0  0  0  0  0
   24.5704    0.9192   65.4305 C   0  0  0  0  0  0  0  0  0  0  0  0
   25.3083    4.7168   64.4065 S   0  0  0  0  0  0  0  0  0  0  0  0
   26.2614    6.2956   62.2826 N   0  0  0  0  0  0  0  0  0  0  0  0
   25.8792    5.0966   62.7389 C   0  0  0  0  0  0  0  0  0  0  0  0
   26.0098    4.2521   61.7071 N   0  0  0  0  0  0  0  0  0  0  0  0
   26.4637    4.8911   60.6166 C   0  0  0  0  0  0  0  0  0  0  0  0
   26.6297    6.2164   60.9802 C   0  0  0  0  0  0  0  0  0  0  0  0
   26.2972    7.5399   63.0305 C   0  0  0  0  0  0  0  0  0  0  0  0
   23.2965   -0.9057   64.5068 N   0  0  0  0  0  0  0  0  0  0  0  0
  1  2  1  0
  2  3  2  0
  3  4  1  0
  1  5  1  0
  4  5  2  0
  5  6  1  0
  6  7  1  0
  7  8  2  0
  7 10  1  0
  9 10  2  0
 10 11  1  0
 11 12  2  0
 12 13  1  0
 13 14  1  0
  9 15  1  0
 13 15  2  0
 12 16  1  0
 16 18  1  0
 17 18  1  0
 18 19  2  0
 19 20  1  0
 17 21  1  0
 20 21  2  0
 17 22  1  0
  9 23  1  0
M  END
$$$$
