1V4S_MRK_A_501
     RDKit          3D

 23 25  0  0  0  0  0  0  0  0999 V2000
   30.3634   15.1627   52.0842 S   0  0  0  0  0  0  0  0  0  0  0  0
   30.2673   13.4259   52.7197 C   0  0  0  0  0  0  0  0  0  0  0  0
   29.6916   12.7350   51.7302 C   0  0  0  0  0  0  0  0  0  0  0  0
   29.3863   13.4516   50.6707 N   0  0  0  0  0  0  0  0  0  0  0  0
   29.5243   14.5725   50.4363 C   0  0  0  0  0  0  0  0  0  0  0  0
   29.3222   15.6210   49.4515 N   0  0  0  0  0  0  0  0  0  0  0  0
   29.7088   16.9477   49.6940 C   0  0  0  0  0  0  0  0  0  0  0  0
   30.3599   17.2364   50.7384 O   0  0  0  0  0  0  0  0  0  0  0  0
   29.7710   19.3265   49.1418 C   0  0  0  0  0  0  0  0  0  0  0  0
   29.3950   18.0375   48.7889 C   0  0  0  0  0  0  0  0  0  0  0  0
   28.7423   17.8725   47.5918 C   0  0  0  0  0  0  0  0  0  0  0  0
   28.4613   18.9397   46.7556 C   0  0  0  0  0  0  0  0  0  0  0  0
   28.8312   20.2249   47.0979 C   0  0  0  0  0  0  0  0  0  0  0  0
   28.5720   21.2966   46.3018 F   0  0  0  0  0  0  0  0  0  0  0  0
   29.4900   20.3923   48.3060 C   0  0  0  0  0  0  0  0  0  0  0  0
   27.6093   18.7226   45.1932 S   0  0  0  0  0  0  0  0  0  0  0  0
   27.6760   16.5373   43.4235 N   0  0  0  0  0  0  0  0  0  0  0  0
   28.2346   17.2098   44.4371 C   0  0  0  0  0  0  0  0  0  0  0  0
   29.3408   16.5287   44.7647 N   0  0  0  0  0  0  0  0  0  0  0  0
   29.4894   15.4472   43.9825 C   0  0  0  0  0  0  0  0  0  0  0  0
   28.4148   15.4446   43.1098 C   0  0  0  0  0  0  0  0  0  0  0  0
   26.4530   16.8818   42.7202 C   0  0  0  0  0  0  0  0  0  0  0  0
   30.4562   19.6059   50.3686 N   0  0  0  0  0  0  0  0  0  0  0  0
  1  2  1  0
  2  3  2  0
  3  4  1  0
  1  5  1  0
  4  5  2  0
  5  6  1  0
  6  7  1  0
  7  8  2  0
  7 10  1  0
  9 10  2  0
 10 11  1  0
 11 12  2  0
 12 13  1  0
 13 14  1  0
  9 15  1  0
 13 15  2  0
 12 16  1  0
 16 18  1  0
 17 18  1  0
 18 19  2  0
 19 20  1  0
 17 21  1  0
 20 21  2  0
 17 22  1  0
  9 23  1  0
M  END
$$$$
