1V4S_MRK_A_501
     RDKit          3D

 23 25  0  0  0  0  0  0  0  0999 V2000
   42.6091   11.8713   61.8670 S   0  0  0  0  0  0  0  0  0  0  0  0
   41.4183   11.4332   63.2160 C   0  0  0  0  0  0  0  0  0  0  0  0
   41.6829   10.1531   63.4982 C   0  0  0  0  0  0  0  0  0  0  0  0
   42.6481    9.6245   62.7784 N   0  0  0  0  0  0  0  0  0  0  0  0
   43.3122   10.0636   61.9438 C   0  0  0  0  0  0  0  0  0  0  0  0
   44.3883    9.7931   61.0064 N   0  0  0  0  0  0  0  0  0  0  0  0
   45.0820   10.8265   60.3588 C   0  0  0  0  0  0  0  0  0  0  0  0
   44.6922   12.0230   60.4793 O   0  0  0  0  0  0  0  0  0  0  0  0
   46.8615   11.6781   58.9181 C   0  0  0  0  0  0  0  0  0  0  0  0
   46.2540   10.5933   59.5358 C   0  0  0  0  0  0  0  0  0  0  0  0
   46.8066    9.3533   59.3270 C   0  0  0  0  0  0  0  0  0  0  0  0
   47.9268    9.1729   58.5337 C   0  0  0  0  0  0  0  0  0  0  0  0
   48.5377   10.2455   57.9154 C   0  0  0  0  0  0  0  0  0  0  0  0
   49.6389   10.1061   57.1295 F   0  0  0  0  0  0  0  0  0  0  0  0
   47.9807   11.4973   58.1256 C   0  0  0  0  0  0  0  0  0  0  0  0
   48.6468    7.5536   58.2622 S   0  0  0  0  0  0  0  0  0  0  0  0
   50.3313    6.0281   59.9196 N   0  0  0  0  0  0  0  0  0  0  0  0
   49.7145    7.1893   59.6688 C   0  0  0  0  0  0  0  0  0  0  0  0
   50.0550    8.0103   60.6712 N   0  0  0  0  0  0  0  0  0  0  0  0
   50.8690    7.3934   61.5432 C   0  0  0  0  0  0  0  0  0  0  0  0
   51.0537    6.1078   61.0641 C   0  0  0  0  0  0  0  0  0  0  0  0
   50.2719    4.8201   59.1157 C   0  0  0  0  0  0  0  0  0  0  0  0
   46.3638   13.0128   59.0717 N   0  0  0  0  0  0  0  0  0  0  0  0
  1  2  1  0
  2  3  2  0
  3  4  1  0
  1  5  1  0
  4  5  2  0
  5  6  1  0
  6  7  1  0
  7  8  2  0
  7 10  1  0
  9 10  2  0
 10 11  1  0
 11 12  2  0
 12 13  1  0
 13 14  1  0
  9 15  1  0
 13 15  2  0
 12 16  1  0
 16 18  1  0
 17 18  1  0
 18 19  2  0
 19 20  1  0
 17 21  1  0
 20 21  2  0
 17 22  1  0
  9 23  1  0
M  END
$$$$
