1V4S_MRK_A_501
     RDKit          3D

 23 25  0  0  0  0  0  0  0  0999 V2000
   36.4662   18.7825   60.9050 S   0  0  0  0  0  0  0  0  0  0  0  0
   35.7819   19.3780   59.2904 C   0  0  0  0  0  0  0  0  0  0  0  0
   36.4473   18.6810   58.3633 C   0  0  0  0  0  0  0  0  0  0  0  0
   37.3313   17.8360   58.8468 N   0  0  0  0  0  0  0  0  0  0  0  0
   37.6404   17.5838   59.9291 C   0  0  0  0  0  0  0  0  0  0  0  0
   38.5072   16.7725   60.7659 N   0  0  0  0  0  0  0  0  0  0  0  0
   38.6263   16.9989   62.1454 C   0  0  0  0  0  0  0  0  0  0  0  0
   38.0918   18.0183   62.6680 O   0  0  0  0  0  0  0  0  0  0  0  0
   39.8675   16.6132   64.2137 C   0  0  0  0  0  0  0  0  0  0  0  0
   39.3485   16.1046   63.0308 C   0  0  0  0  0  0  0  0  0  0  0  0
   39.5531   14.7718   62.7697 C   0  0  0  0  0  0  0  0  0  0  0  0
   40.2484   13.9511   63.6416 C   0  0  0  0  0  0  0  0  0  0  0  0
   40.7682   14.4478   64.8201 C   0  0  0  0  0  0  0  0  0  0  0  0
   41.4562   13.6718   65.6999 F   0  0  0  0  0  0  0  0  0  0  0  0
   40.5621   15.7928   65.0845 C   0  0  0  0  0  0  0  0  0  0  0  0
   40.5147   12.2116   63.2992 S   0  0  0  0  0  0  0  0  0  0  0  0
   42.6991   10.9606   62.0442 N   0  0  0  0  0  0  0  0  0  0  0  0
   42.0014   12.0766   62.2879 C   0  0  0  0  0  0  0  0  0  0  0  0
   42.6343   13.0569   61.6295 N   0  0  0  0  0  0  0  0  0  0  0  0
   43.7103   12.5837   60.9800 C   0  0  0  0  0  0  0  0  0  0  0  0
   43.7603   11.2255   61.2430 C   0  0  0  0  0  0  0  0  0  0  0  0
   42.4084    9.6271   62.5405 C   0  0  0  0  0  0  0  0  0  0  0  0
   39.7093   17.9893   64.5797 N   0  0  0  0  0  0  0  0  0  0  0  0
  1  2  1  0
  2  3  2  0
  3  4  1  0
  1  5  1  0
  4  5  2  0
  5  6  1  0
  6  7  1  0
  7  8  2  0
  7 10  1  0
  9 10  2  0
 10 11  1  0
 11 12  2  0
 12 13  1  0
 13 14  1  0
  9 15  1  0
 13 15  2  0
 12 16  1  0
 16 18  1  0
 17 18  1  0
 18 19  2  0
 19 20  1  0
 17 21  1  0
 20 21  2  0
 17 22  1  0
  9 23  1  0
M  END
$$$$
