1V4S_MRK_A_501
     RDKit          3D

 23 25  0  0  0  0  0  0  0  0999 V2000
   20.7670   -0.7006   59.3143 S   0  0  0  0  0  0  0  0  0  0  0  0
   20.1247   -0.2313   57.6419 C   0  0  0  0  0  0  0  0  0  0  0  0
   20.2213    1.1019   57.6043 C   0  0  0  0  0  0  0  0  0  0  0  0
   20.7122    1.6439   58.6972 N   0  0  0  0  0  0  0  0  0  0  0  0
   21.0769    1.1789   59.6878 C   0  0  0  0  0  0  0  0  0  0  0  0
   21.6350    1.4504   61.0011 N   0  0  0  0  0  0  0  0  0  0  0  0
   22.2887    0.4574   61.7463 C   0  0  0  0  0  0  0  0  0  0  0  0
   22.2433   -0.7487   61.3707 O   0  0  0  0  0  0  0  0  0  0  0  0
   23.2620   -0.2853   63.8602 C   0  0  0  0  0  0  0  0  0  0  0  0
   23.0345    0.7445   62.9574 C   0  0  0  0  0  0  0  0  0  0  0  0
   23.5353    1.9845   63.2704 C   0  0  0  0  0  0  0  0  0  0  0  0
   24.2426    2.2174   64.4376 C   0  0  0  0  0  0  0  0  0  0  0  0
   24.4737    1.1997   65.3414 C   0  0  0  0  0  0  0  0  0  0  0  0
   25.1640    1.3916   66.4973 F   0  0  0  0  0  0  0  0  0  0  0  0
   23.9687   -0.0521   65.0262 C   0  0  0  0  0  0  0  0  0  0  0  0
   24.8956    3.8367   64.8447 S   0  0  0  0  0  0  0  0  0  0  0  0
   26.6503    5.4669   63.3699 N   0  0  0  0  0  0  0  0  0  0  0  0
   26.1310    4.2547   63.5997 C   0  0  0  0  0  0  0  0  0  0  0  0
   26.7168    3.4312   62.7202 N   0  0  0  0  0  0  0  0  0  0  0  0
   27.5893    4.0962   61.9456 C   0  0  0  0  0  0  0  0  0  0  0  0
   27.5530    5.4166   62.3595 C   0  0  0  0  0  0  0  0  0  0  0  0
   26.3303    6.6975   64.0713 C   0  0  0  0  0  0  0  0  0  0  0  0
   22.7822   -1.6152   63.6279 N   0  0  0  0  0  0  0  0  0  0  0  0
  1  2  1  0
  2  3  2  0
  3  4  1  0
  1  5  1  0
  4  5  2  0
  5  6  1  0
  6  7  1  0
  7  8  2  0
  7 10  1  0
  9 10  2  0
 10 11  1  0
 11 12  2  0
 12 13  1  0
 13 14  1  0
  9 15  1  0
 13 15  2  0
 12 16  1  0
 16 18  1  0
 17 18  1  0
 18 19  2  0
 19 20  1  0
 17 21  1  0
 20 21  2  0
 17 22  1  0
  9 23  1  0
M  END
$$$$
