1V4S_MRK_A_501
     RDKit          3D

 23 25  0  0  0  0  0  0  0  0999 V2000
   21.3190    0.3360   61.5173 S   0  0  0  0  0  0  0  0  0  0  0  0
   20.4272    0.9182   60.0022 C   0  0  0  0  0  0  0  0  0  0  0  0
   19.1901    0.4264   60.1279 C   0  0  0  0  0  0  0  0  0  0  0  0
   18.9919   -0.2780   61.2206 N   0  0  0  0  0  0  0  0  0  0  0  0
   19.6922   -0.5514   62.0954 C   0  0  0  0  0  0  0  0  0  0  0  0
   19.8036   -1.2528   63.3624 N   0  0  0  0  0  0  0  0  0  0  0  0
   21.0219   -1.3446   64.0521 C   0  0  0  0  0  0  0  0  0  0  0  0
   22.0690   -0.8375   63.5576 O   0  0  0  0  0  0  0  0  0  0  0  0
   22.3841   -1.9861   65.9758 C   0  0  0  0  0  0  0  0  0  0  0  0
   21.1519   -2.0069   65.3366 C   0  0  0  0  0  0  0  0  0  0  0  0
   20.1214   -2.6605   65.9669 C   0  0  0  0  0  0  0  0  0  0  0  0
   20.2866   -3.2807   67.1936 C   0  0  0  0  0  0  0  0  0  0  0  0
   21.5080   -3.2653   67.8369 C   0  0  0  0  0  0  0  0  0  0  0  0
   21.7071   -3.8635   69.0419 F   0  0  0  0  0  0  0  0  0  0  0  0
   22.5486   -2.6059   67.2014 C   0  0  0  0  0  0  0  0  0  0  0  0
   18.9404   -4.1334   68.0151 S   0  0  0  0  0  0  0  0  0  0  0  0
   16.1642   -3.9456   67.6038 N   0  0  0  0  0  0  0  0  0  0  0  0
   17.3966   -3.4993   67.3325 C   0  0  0  0  0  0  0  0  0  0  0  0
   17.2401   -2.4959   66.4586 N   0  0  0  0  0  0  0  0  0  0  0  0
   15.9416   -2.3024   66.1757 C   0  0  0  0  0  0  0  0  0  0  0  0
   15.2365   -3.2376   66.9135 C   0  0  0  0  0  0  0  0  0  0  0  0
   15.8100   -5.0306   68.5016 C   0  0  0  0  0  0  0  0  0  0  0  0
   23.5227   -1.3316   65.4033 N   0  0  0  0  0  0  0  0  0  0  0  0
  1  2  1  0
  2  3  2  0
  3  4  1  0
  1  5  1  0
  4  5  2  0
  5  6  1  0
  6  7  1  0
  7  8  2  0
  7 10  1  0
  9 10  2  0
 10 11  1  0
 11 12  2  0
 12 13  1  0
 13 14  1  0
  9 15  1  0
 13 15  2  0
 12 16  1  0
 16 18  1  0
 17 18  1  0
 18 19  2  0
 19 20  1  0
 17 21  1  0
 20 21  2  0
 17 22  1  0
  9 23  1  0
M  END
$$$$
