1V4S_MRK_A_501
     RDKit          3D

 23 25  0  0  0  0  0  0  0  0999 V2000
   39.3878   18.8311   66.0342 S   0  0  0  0  0  0  0  0  0  0  0  0
   40.0792   19.9019   67.3777 C   0  0  0  0  0  0  0  0  0  0  0  0
   41.0549   19.1696   67.9254 C   0  0  0  0  0  0  0  0  0  0  0  0
   41.2191   17.9846   67.3795 N   0  0  0  0  0  0  0  0  0  0  0  0
   40.6738   17.4573   66.5105 C   0  0  0  0  0  0  0  0  0  0  0  0
   40.5953   16.2505   65.7059 N   0  0  0  0  0  0  0  0  0  0  0  0
   40.1279   16.2729   64.3833 C   0  0  0  0  0  0  0  0  0  0  0  0
   39.4901   17.2764   63.9542 O   0  0  0  0  0  0  0  0  0  0  0  0
   39.8162   15.2808   62.1728 C   0  0  0  0  0  0  0  0  0  0  0  0
   40.3410   15.1790   63.4540 C   0  0  0  0  0  0  0  0  0  0  0  0
   41.0369   14.0366   63.7655 C   0  0  0  0  0  0  0  0  0  0  0  0
   41.2182   13.0146   62.8492 C   0  0  0  0  0  0  0  0  0  0  0  0
   40.7001   13.1067   61.5729 C   0  0  0  0  0  0  0  0  0  0  0  0
   40.8584   12.1232   60.6470 F   0  0  0  0  0  0  0  0  0  0  0  0
   39.9976   14.2594   61.2577 C   0  0  0  0  0  0  0  0  0  0  0  0
   42.1269   11.5240   63.2574 S   0  0  0  0  0  0  0  0  0  0  0  0
   44.8950   11.0280   63.1988 N   0  0  0  0  0  0  0  0  0  0  0  0
   43.8672   11.8315   62.8993 C   0  0  0  0  0  0  0  0  0  0  0  0
   44.4000   12.8967   62.2859 N   0  0  0  0  0  0  0  0  0  0  0  0
   45.7348   12.7811   62.1936 C   0  0  0  0  0  0  0  0  0  0  0  0
   46.0648   11.5727   62.7828 C   0  0  0  0  0  0  0  0  0  0  0  0
   44.8273    9.7435   63.8729 C   0  0  0  0  0  0  0  0  0  0  0  0
   39.0746   16.4306   61.7478 N   0  0  0  0  0  0  0  0  0  0  0  0
  1  2  1  0
  2  3  2  0
  3  4  1  0
  1  5  1  0
  4  5  2  0
  5  6  1  0
  6  7  1  0
  7  8  2  0
  7 10  1  0
  9 10  2  0
 10 11  1  0
 11 12  2  0
 12 13  1  0
 13 14  1  0
  9 15  1  0
 13 15  2  0
 12 16  1  0
 16 18  1  0
 17 18  1  0
 18 19  2  0
 19 20  1  0
 17 21  1  0
 20 21  2  0
 17 22  1  0
  9 23  1  0
M  END
$$$$
