6ZPB_3D1_A_201
     RDKit          3D

 31 33  0  0  0  0  0  0  0  0999 V2000
    1.9349    1.5251   -5.3705 O   0  0  0  0  0  0  0  0  0  0  0  0
    1.5956    1.9556   -6.6613 C   0  0  0  0  0  0  0  0  0  0  0  0
    0.6926    3.1952   -6.6036 C   0  0  2  0  0  0  0  0  0  0  0  0
    1.1321    4.0537   -5.5782 O   0  0  0  0  0  0  0  0  0  0  0  0
   -0.0052    4.7256   -5.0783 C   0  0  2  0  0  0  0  0  0  0  0  0
    0.0004    4.6858   -3.6143 N   0  0  0  0  0  4  0  0  0  0  0  0
    0.1645    3.6317   -2.8037 C   0  0  0  0  0  0  0  0  0  0  0  0
    0.4232    2.3483   -3.1524 N   0  0  0  0  0  0  0  0  0  0  0  0
    0.5403    1.4234   -2.1526 C   0  0  0  0  0  0  0  0  0  0  0  0
    0.3928    1.7950   -0.8400 N   0  0  0  0  0  0  0  0  0  0  0  0
    0.1259    3.0896   -0.4922 C   0  0  0  0  0  0  0  0  0  0  0  0
   -0.0322    3.4560    0.8786 N   0  0  0  0  0  0  0  0  0  0  0  0
    0.0114    4.0214   -1.5178 C   0  0  0  0  0  0  0  0  0  0  0  0
   -0.2682    5.3369   -1.4526 N   0  0  0  0  0  0  0  0  0  0  0  0
   -0.2716    5.7085   -2.7631 C   0  0  0  0  0  0  0  0  0  0  0  0
   -1.2713    4.0736   -5.6317 C   0  0  0  0  0  0  0  0  0  0  0  0
   -0.7613    2.8405   -6.3264 C   0  0  1  0  0  0  0  0  0  0  0  0
   -1.4546    2.5992   -7.5227 O   0  0  0  0  0  0  0  0  0  0  0  0
    1.1266    1.0869   -4.9958 H   0  0  0  0  0  0  0  0  0  0  0  0
    2.5280    2.1917   -7.2169 H   0  0  0  0  0  0  0  0  0  0  0  0
    1.0768    1.1388   -7.2127 H   0  0  0  0  0  0  0  0  0  0  0  0
    0.7721    3.7416   -7.5718 H   0  0  0  0  0  0  0  0  0  0  0  0
    0.0405    5.7859   -5.4140 H   0  0  0  0  0  0  0  0  0  0  0  0
    0.7490    0.3914   -2.3984 H   0  0  0  0  0  0  0  0  0  0  0  0
    0.0572    2.7344    1.6278 H   0  0  0  0  0  0  0  0  0  0  0  0
   -0.2372    4.4429    1.1513 H   0  0  0  0  0  0  0  0  0  0  0  0
   -0.4830    6.7184   -3.0898 H   0  0  0  0  0  0  0  0  0  0  0  0
   -2.0043    3.8104   -4.8371 H   0  0  0  0  0  0  0  0  0  0  0  0
   -1.7589    4.7611   -6.3590 H   0  0  0  0  0  0  0  0  0  0  0  0
   -0.8321    1.9626   -5.6410 H   0  0  0  0  0  0  0  0  0  0  0  0
   -2.3386    2.2287   -7.2642 H   0  0  0  0  0  0  0  0  0  0  0  0
  1  2  1  0
  3  2  1  0
  3  4  1  0
  4  5  1  0
  5  6  1  0
  6  7  4  0
  7  8  4  0
  8  9  4  0
  9 10  4  0
 10 11  4  0
 11 12  1  0
  7 13  4  0
 11 13  4  0
 13 14  4  0
  6 15  4  0
 14 15  4  0
  5 16  1  0
  3 17  1  0
 16 17  1  0
 17 18  1  0
  1 19  1  0
  2 20  1  0
  2 21  1  0
  3 22  1  1
  5 23  1  6
  9 24  1  0
 12 25  1  0
 12 26  1  0
 15 27  1  0
 16 28  1  0
 16 29  1  0
 17 30  1  6
 18 31  1  0
M  CHG  1   6   1
M  END
