8AUH_L9I_B_403
     RDKit          3D

 11 10  0  0  0  0  0  0  0  0999 V2000
   16.6651   16.4532  -26.0741 N   0  0  0  0  0  0  0  0  0  0  0  0
   17.6683   14.4231  -25.3331 C   0  0  0  0  0  0  0  0  0  0  0  0
   17.1223   13.7228  -26.2356 O   0  0  0  0  0  0  0  0  0  0  0  0
   18.2713   16.6075  -24.2685 C   0  0  0  0  0  0  0  0  0  0  0  0
   18.9604   18.6679  -23.1200 C   0  0  0  0  0  0  0  0  0  0  0  0
   18.6636   20.1395  -23.1200 C   0  0  0  0  0  0  0  0  0  0  0  0
   18.4987   13.7022  -24.3439 C   0  0  0  0  0  0  0  0  0  0  0  0
   17.4909   15.8799  -25.2644 C   0  0  0  0  0  0  0  0  0  0  0  0
   18.1849   17.9813  -24.0952 O   0  0  0  0  0  0  0  0  0  0  0  0
   16.4474   17.8027  -26.0705 O   0  0  0  0  0  0  0  0  0  0  0  0
   19.0576   15.9057  -23.5448 O   0  0  0  0  0  0  0  0  0  0  0  0
  2  3  2  0
  5  6  1  0
  2  7  1  0
  1  8  2  0
  4  8  1  0
  2  8  1  0
  4  9  1  0
  5  9  1  0
  1 10  1  0
  4 11  2  0
M  END
$$$$
