7PA4_C_A_606
     RDKit          3D

 35 36  0  0  0  0  0  0  0  0999 V2000
   13.6626   14.5223   35.6354 O   0  0  0  0  0  0  0  0  0  0  0  0
   13.6484   14.9179   37.1068 P   0  0  1  0  0  5  0  0  0  0  0  0
   12.2694   15.2421   37.6660 O   0  0  0  0  0  0  0  0  0  0  0  0
   14.4340   14.0242   38.0261 O   0  0  0  0  0  0  0  0  0  0  0  0
   14.5649   16.2429   37.1636 O   0  0  0  0  0  0  0  0  0  0  0  0
   14.1228   17.4769   36.5970 C   0  0  0  0  0  0  0  0  0  0  0  0
   13.5168   17.1842   35.2466 C   0  0  1  0  0  0  0  0  0  0  0  0
   14.5157   17.3463   34.2193 O   0  0  0  0  0  0  0  0  0  0  0  0
   13.0561   15.7559   35.0161 C   0  0  1  0  0  0  0  0  0  0  0  0
   11.8205   15.4920   35.6829 O   0  0  0  0  0  0  0  0  0  0  0  0
   12.9721   15.6859   33.4865 C   0  0  1  0  0  0  0  0  0  0  0  0
   11.7458   16.2147   33.0248 O   0  0  0  0  0  0  0  0  0  0  0  0
   14.1331   16.6019   33.0770 C   0  0  2  0  0  0  0  0  0  0  0  0
   15.3041   15.9149   32.5212 N   0  0  0  0  0  4  0  0  0  0  0  0
   15.2096   15.3749   31.2250 C   0  0  0  0  0  0  0  0  0  0  0  0
   14.1592   15.5131   30.5853 O   0  0  0  0  0  0  0  0  0  0  0  0
   16.2781   14.7644   30.6891 N   0  0  0  0  0  0  0  0  0  0  0  0
   17.3859   14.6002   31.4080 C   0  0  0  0  0  0  0  0  0  0  0  0
   18.4118   14.0015   30.8182 N   0  0  0  0  0  0  0  0  0  0  0  0
   17.5165   15.1307   32.7328 C   0  0  0  0  0  0  0  0  0  0  0  0
   16.4506   15.7491   33.2555 C   0  0  0  0  0  0  0  0  0  0  0  0
   13.1277   13.7229   35.5103 H   0  0  0  0  0  0  0  0  0  0  0  0
   13.9929   13.1630   38.0947 H   0  0  0  0  0  0  0  0  0  0  0  0
   14.9533   18.1422   36.4850 H   0  0  0  0  0  0  0  0  0  0  0  0
   13.3987   17.9387   37.2352 H   0  0  0  0  0  0  0  0  0  0  0  0
   12.6824   17.8533   35.2141 H   0  0  0  0  0  0  0  0  0  0  0  0
   13.7064   15.0062   35.4159 H   0  0  0  0  0  0  0  0  0  0  0  0
   11.1507   16.1278   35.3863 H   0  0  0  0  0  0  0  0  0  0  0  0
   13.0273   14.6928   33.0920 H   0  0  0  0  0  0  0  0  0  0  0  0
   11.6403   17.1211   33.3539 H   0  0  0  0  0  0  0  0  0  0  0  0
   13.7757   17.2207   32.2806 H   0  0  0  0  0  0  0  0  0  0  0  0
   18.3137   13.6397   29.9079 H   0  0  0  0  0  0  0  0  0  0  0  0
   19.2715   13.9188   31.2908 H   0  0  0  0  0  0  0  0  0  0  0  0
   18.3974   15.0397   33.2627 H   0  0  0  0  0  0  0  0  0  0  0  0
   16.4920   16.1055   34.2231 H   0  0  0  0  0  0  0  0  0  0  0  0
  2  1  1  6
  2  3  2  0
  2  4  1  0
  2  5  1  0
  5  6  1  0
  7  6  1  0
  7  8  1  0
  7  9  1  0
  9 10  1  0
  9 11  1  0
 11 12  1  0
  8 13  1  0
 11 13  1  0
 13 14  1  0
 14 15  4  0
 15 16  2  0
 15 17  4  0
 17 18  4  0
 18 19  1  0
 18 20  4  0
 14 21  4  0
 20 21  4  0
  1 22  1  0
  4 23  1  0
  6 24  1  0
  6 25  1  0
  7 26  1  6
  9 27  1  1
 10 28  1  0
 11 29  1  1
 12 30  1  0
 13 31  1  6
 19 32  1  0
 19 33  1  0
 20 34  1  0
 21 35  1  0
M  CHG  1  14   1
M  END
