
     RDKit          3D

 32 34  0  0  0  0  0  0  0  0999 V2000
  -58.1079    6.4647  -22.4226 P   0  0  0  0  0  5  0  0  0  0  0  0
  -58.0073    6.3580  -20.9442 O   0  0  0  0  0  0  0  0  0  0  0  0
  -57.6595    5.1488  -23.2224 O   0  0  0  0  0  0  0  0  0  0  0  0
  -57.1379    7.5431  -23.0854 O   0  0  0  0  0  0  0  0  0  0  0  0
  -59.5039    6.8342  -23.0553 O   0  0  0  0  0  0  0  0  0  0  0  0
  -60.8574    7.0259  -22.2632 P   0  0  2  0  0  5  0  0  0  0  0  0
  -60.7439    7.6152  -20.8963 O   0  0  0  0  0  0  0  0  0  0  0  0
  -61.4884    5.5545  -22.2582 O   0  0  0  0  0  0  0  0  0  0  0  0
  -61.7813    7.8332  -23.2731 O   0  0  0  0  0  0  0  0  0  0  0  0
  -61.3019    9.0252  -24.1970 P   0  0  0  0  0  5  0  0  0  0  0  0
  -59.8612    9.0640  -24.5787 O   0  0  0  0  0  0  0  0  0  0  0  0
  -62.1999    8.7976  -25.5198 O   0  0  0  0  0  0  0  0  0  0  0  0
  -61.9136   10.3804  -23.5994 O   0  0  0  0  0  0  0  0  0  0  0  0
  -62.6974   10.2814  -22.4265 C   0  0  0  0  0  0  0  0  0  0  0  0
  -63.9113   11.2169  -22.4662 C   0  0  1  0  0  0  0  0  0  0  0  0
  -63.6852   12.1974  -23.4979 O   0  0  0  0  0  0  0  0  0  0  0  0
  -65.2481   10.5180  -22.7339 C   0  0  1  0  0  0  0  0  0  0  0  0
  -66.0190   10.3464  -21.5241 O   0  0  0  0  0  0  0  0  0  0  0  0
  -65.9773   11.4639  -23.6795 C   0  0  1  0  0  0  0  0  0  0  0  0
  -66.8581   12.2902  -22.8816 O   0  0  0  0  0  0  0  0  0  0  0  0
  -64.8649   12.2994  -24.3111 C   0  0  2  0  0  0  0  0  0  0  0  0
  -64.5453   11.9431  -25.6806 N   0  0  0  0  0  0  0  0  0  0  0  0
  -63.2713   11.7506  -26.1622 C   0  0  0  0  0  0  0  0  0  0  0  0
  -63.2591   11.5294  -27.4608 N   0  0  0  0  0  0  0  0  0  0  0  0
  -64.5820   11.5515  -27.8224 C   0  0  0  0  0  0  0  0  0  0  0  0
  -65.2099   11.3694  -29.1137 C   0  0  0  0  0  0  0  0  0  0  0  0
  -64.6268   11.1656  -30.1734 O   0  0  0  0  0  0  0  0  0  0  0  0
  -66.5933   11.4576  -29.0405 N   0  0  0  0  0  0  0  0  0  0  0  0
  -67.3038   11.7091  -27.8834 C   0  0  0  0  0  0  0  0  0  0  0  0
  -68.6543   11.7426  -28.0062 N   0  0  0  0  0  0  0  0  0  0  0  0
  -66.7451   11.8987  -26.7180 N   0  0  0  0  0  0  0  0  0  0  0  0
  -65.3962   11.8027  -26.7404 C   0  0  0  0  0  0  0  0  0  0  0  0
  1  2  2  0
  1  3  1  0
  1  4  1  0
  1  5  1  0
  5  6  1  0
  6  7  2  0
  6  8  1  1
  6  9  1  0
  9 10  1  0
 10 11  2  0
 10 12  1  0
 10 13  1  0
 13 14  1  0
 15 14  1  6
 15 16  1  0
 15 17  1  0
 17 18  1  1
 17 19  1  0
 19 20  1  1
 16 21  1  0
 19 21  1  0
 21 22  1  6
 22 23  4  0
 23 24  4  0
 24 25  4  0
 25 26  4  0
 26 27  2  0
 26 28  4  0
 28 29  4  0
 29 30  1  0
 29 31  4  0
 22 32  4  0
 25 32  4  0
 31 32  4  0
M  END
