8A1H_DLZ_A_602
     RDKit          3D

 23 24  0  0  0  0  0  0  0  0999 V2000
  -76.7114   22.6736  -10.7005 C   0  0  0  0  0  0  0  0  0  0  0  0
  -76.0501   23.9538  -10.3635 C   0  0  0  0  0  0  0  0  0  0  0  0
  -76.2898   25.0952  -11.1181 C   0  0  0  0  0  0  0  0  0  0  0  0
  -77.2302   24.9637  -12.2630 C   0  0  0  0  0  0  0  0  0  0  0  0
  -75.7112   26.2784  -10.8482 N   0  0  0  0  0  0  0  0  0  0  0  0
  -74.8723   26.3645   -9.8147 C   0  0  0  0  0  0  0  0  0  0  0  0
  -74.2848   27.5936   -9.5514 C   0  0  0  0  0  0  0  0  0  0  0  0
  -74.5086   28.6168  -10.2394 O   0  0  0  0  0  0  0  0  0  0  0  0
  -73.4426   27.6268   -8.4929 N   0  0  0  0  0  0  0  0  0  0  0  0
  -73.2019   26.5289   -7.7542 C   0  0  0  0  0  0  0  0  0  0  0  0
  -72.3923   26.6705   -6.7798 O   0  0  0  0  0  0  0  0  0  0  0  0
  -73.7449   25.3351   -7.9747 N   0  0  0  0  0  0  0  0  0  0  0  0
  -74.5996   25.2024   -9.0099 C   0  0  0  0  0  0  0  0  0  0  0  0
  -75.1978   24.0204   -9.3054 N   0  0  0  0  0  0  0  0  0  0  0  0
  -74.9030   22.8736   -8.4785 C   0  0  0  0  0  0  0  0  0  0  0  0
  -73.5310   22.9846   -7.8356 C   0  0  2  0  0  0  0  0  0  0  0  0
  -72.6047   22.8883   -8.8908 O   0  0  0  0  0  0  0  0  0  0  0  0
  -73.3270   21.9486   -6.7735 C   0  0  2  0  0  0  0  0  0  0  0  0
  -74.4513   21.8696   -5.9413 O   0  0  0  0  0  0  0  0  0  0  0  0
  -72.1266   22.1707   -5.9270 C   0  0  2  0  0  0  0  0  0  0  0  0
  -70.9536   22.3503   -6.6476 O   0  0  0  0  0  0  0  0  0  0  0  0
  -71.9030   20.9725   -5.0317 C   0  0  0  0  0  0  0  0  0  0  0  0
  -70.8514   21.1951   -4.1345 O   0  0  0  0  0  0  0  0  0  0  0  0
  1  2  1  6
  2  3  2  0
  4  3  1  6
  3  5  1  0
  5  6  2  0
  6  7  1  0
  7  8  2  0
  7  9  1  0
  9 10  1  0
 10 11  2  0
 10 12  1  0
  6 13  1  0
 12 13  2  0
  2 14  1  0
 13 14  1  0
 15 14  1  6
 15 16  1  0
 16 17  1  6
 16 18  1  0
 18 19  1  1
 18 20  1  0
 20 21  1  6
 20 22  1  0
 22 23  1  6
M  END
$$$$
