1SQ5_PAU_A_6001
     RDKit          3D

 32 31  0  0  0  0  0  0  0  0999 V2000
   53.6391   -1.8669    3.7994 O   0  0  0  0  0  0  0  0  0  0  0  0
   51.8972   -3.5675    3.7304 C   0  0  2  0  0  0  0  0  0  0  0  0
   52.6053   -2.4521    4.5458 C   0  0  1  0  0  0  0  0  0  0  0  0
   52.3343   -4.9511    4.2672 C   0  0  1  0  0  0  0  0  0  0  0  0
   52.3201   -3.4719    2.2464 C   0  0  1  0  0  0  0  0  0  0  0  0
   50.3413   -3.4505    3.8555 C   0  0  1  0  0  0  0  0  0  0  0  0
   49.9250   -3.8894    5.1257 O   0  0  0  0  0  0  0  0  0  0  0  0
   49.8283   -2.0476    3.6157 C   0  0  0  0  0  0  0  0  0  0  0  0
   50.6039   -1.1715    3.1437 O   0  0  0  0  0  0  0  0  0  0  0  0
   48.4660   -1.7138    3.9206 N   0  0  0  0  0  0  0  0  0  0  0  0
   47.4421   -1.5622    2.8870 C   0  0  1  0  0  0  0  0  0  0  0  0
   46.4144   -2.6980    2.9475 C   0  0  2  0  0  0  0  0  0  0  0  0
   45.0727   -2.2103    3.4033 C   0  0  0  0  0  0  0  0  0  0  0  0
   44.8054   -0.8453    3.4469 O   0  0  0  0  0  0  0  0  0  0  0  0
   44.1759   -3.0363    3.7213 O   0  0  0  0  0  0  0  0  0  0  0  0
   54.2030   -1.3713    4.4486 H   0  0  0  0  0  0  0  0  0  0  0  0
   53.0275   -2.8788    5.4835 H   0  0  0  0  0  0  0  0  0  0  0  0
   51.8741   -1.6614    4.8259 H   0  0  0  0  0  0  0  0  0  0  0  0
   51.4681   -5.5063    4.6869 H   0  0  0  0  0  0  0  0  0  0  0  0
   52.7810   -5.5635    3.4542 H   0  0  0  0  0  0  0  0  0  0  0  0
   53.0941   -4.8473    5.0715 H   0  0  0  0  0  0  0  0  0  0  0  0
   52.8145   -2.5018    2.0365 H   0  0  0  0  0  0  0  0  0  0  0  0
   53.0386   -4.2782    1.9851 H   0  0  0  0  0  0  0  0  0  0  0  0
   51.4368   -3.5690    1.5791 H   0  0  0  0  0  0  0  0  0  0  0  0
   49.8852   -4.1174    3.0856 H   0  0  0  0  0  0  0  0  0  0  0  0
   49.7658   -3.0776    5.6755 H   0  0  0  0  0  0  0  0  0  0  0  0
   48.2067   -1.4919    4.9082 H   0  0  0  0  0  0  0  0  0  0  0  0
   46.9242   -0.5873    3.0201 H   0  0  0  0  0  0  0  0  0  0  0  0
   47.9228   -1.5459    1.8850 H   0  0  0  0  0  0  0  0  0  0  0  0
   46.7777   -3.5022    3.6230 H   0  0  0  0  0  0  0  0  0  0  0  0
   46.3029   -3.1369    1.9333 H   0  0  0  0  0  0  0  0  0  0  0  0
   45.0171   -0.3008    4.2745 H   0  0  0  0  0  0  0  0  0  0  0  0
  1  3  1  0
  2  3  1  0
  2  4  1  0
  2  5  1  0
  2  6  1  6
  6  7  1  0
  6  8  1  0
  8  9  2  0
  8 10  1  0
 10 11  1  0
 11 12  1  0
 12 13  1  0
 13 14  1  0
 13 15  2  0
  1 16  1  0
  3 17  1  1
  3 18  1  0
  4 19  1  1
  4 20  1  0
  4 21  1  0
  5 22  1  1
  5 23  1  0
  5 24  1  0
  6 25  1  6
  7 26  1  0
 10 27  1  0
 11 28  1  1
 11 29  1  0
 12 30  1  1
 12 31  1  0
 14 32  1  0
M  END
