@<TRIPOS>MOLECULE
1V4S_MRK_A_501
 35 37 0 0 0
SMALL
GASTEIGER

@<TRIPOS>ATOM
      1 S          36.3550   19.0670   60.8670 S.2     1  UNL1       -0.0605
      2 C          35.7380   19.4150   59.2920 C.ar    1  UNL1       -0.0030
      3 C          36.3890   18.6550   58.3640 C.ar    1  UNL1        0.0368
      4 N          37.3530   17.8140   58.8620 N.ar    1  UNL1       -0.2330
      5 C          37.4460   17.9280   60.1940 C.ar    1  UNL1        0.1646
      6 N          38.3390   17.1720   60.8990 N.am    1  UNL1       -0.2606
      7 C          38.6150   17.2040   62.3110 C.2     1  UNL1        0.2515
      8 O          38.0210   17.9870   63.0650 O.2     1  UNL1       -0.2697
      9 C          40.4410   16.3620   64.1070 C.ar    1  UNL1        0.0396
     10 C          39.6630   16.2270   62.8870 C.ar    1  UNL1        0.0589
     11 C          39.8660   15.0370   62.0990 C.ar    1  UNL1       -0.0312
     12 C          40.7850   14.0430   62.4920 C.ar    1  UNL1        0.0515
     13 C          41.5420   14.1920   63.6880 C.ar    1  UNL1        0.1389
     14 F          42.4410   13.2470   64.0960 F       1  UNL1       -0.2043
     15 C          41.3620   15.3510   64.4840 C.ar    1  UNL1       -0.0039
     16 S          40.9350   12.6300   61.4450 S.3     1  UNL1       -0.0488
     17 N          42.7210   10.8290   62.4010 N.ar    1  UNL1       -0.3284
     18 C          42.5260   11.8870   61.5220 C.ar    1  UNL1        0.1735
     19 N          43.5690   12.3250   60.7380 N.ar    1  UNL1       -0.2300
     20 C          44.5500   11.4410   61.1650 C.ar    1  UNL1        0.0466
     21 C          44.0570   10.5650   62.1370 C.ar    1  UNL1        0.0247
     22 C          41.7820   10.1760   63.3410 C.3     1  UNL1        0.0137
     23 N          40.3410   17.4110   64.9280 N.pl3   1  UNL1       -0.3573
     24 H          34.9900   20.0949   59.0840 H       1  UNL1        0.0709
     25 H          36.1714   18.7089   57.3566 H       1  UNL1        0.0835
     26 H          38.8603   16.5224   60.3742 H       1  UNL1        0.1571
     27 H          39.3268   14.9101   61.2283 H       1  UNL1        0.0638
     28 H          41.9097   15.4611   65.3517 H       1  UNL1        0.0665
     29 H          45.5192   11.4314   60.8105 H       1  UNL1        0.0845
     30 H          44.6107    9.8242   62.5949 H       1  UNL1        0.0825
     31 H          40.8245   10.6490   63.2749 H       1  UNL1        0.0456
     32 H          42.1562   10.2663   64.3393 H       1  UNL1        0.0456
     33 H          41.6866    9.1407   63.0882 H       1  UNL1        0.0456
     34 H          39.7178   18.1434   64.7172 H       1  UNL1        0.1423
     35 H          40.8905   17.4517   65.7439 H       1  UNL1        0.1423
@<TRIPOS>BOND
     1     1     2   ar
     2     2     3   ar
     3     3     4   ar
     4     1     5   ar
     5     4     5   ar
     6     5     6    1
     7     6     7   am
     8     7     8    2
     9     7    10    1
    10     9    10   ar
    11    10    11   ar
    12    11    12   ar
    13    12    13   ar
    14    13    14    1
    15     9    15   ar
    16    13    15   ar
    17    12    16    1
    18    16    18    1
    19    17    18   ar
    20    18    19   ar
    21    19    20   ar
    22    17    21   ar
    23    20    21   ar
    24    17    22    1
    25     9    23    1
    26     2    24    1
    27     3    25    1
    28     6    26    1
    29    11    27    1
    30    15    28    1
    31    20    29    1
    32    21    30    1
    33    22    31    1
    34    22    32    1
    35    22    33    1
    36    23    34    1
    37    23    35    1
