@<TRIPOS>MOLECULE
1V4S_MRK_A_501
 35 37 0 0 0
SMALL
GASTEIGER

@<TRIPOS>ATOM
      1 S           0.5859   -2.5841    4.0050 S.2     1  UNL1       -0.0605
      2 C           0.2966   -2.3238    5.6409 C.ar    1  UNL1       -0.0030
      3 C           0.3396   -0.9536    5.8708 C.ar    1  UNL1        0.0368
      4 N           0.5931   -0.1904    4.7741 N.ar    1  UNL1       -0.2330
      5 C           0.7619   -0.9424    3.6651 C.ar    1  UNL1        0.1646
      6 N           1.0090   -0.3640    2.3750 N.am    1  UNL1       -0.2606
      7 C           1.3191   -1.1101    1.1854 C.2     1  UNL1        0.2515
      8 O           1.5847   -2.3403    1.2529 O.2     1  UNL1       -0.2697
      9 C           2.2885   -0.6962   -1.1239 C.ar    1  UNL1        0.0396
     10 C           1.3067   -0.4389   -0.1340 C.ar    1  UNL1        0.0589
     11 C           0.2562    0.4484   -0.4257 C.ar    1  UNL1       -0.0312
     12 C           0.1544    1.0484   -1.6841 C.ar    1  UNL1        0.0515
     13 C           1.1170    0.7810   -2.6625 C.ar    1  UNL1        0.1389
     14 F           1.0331    1.3616   -3.8859 F       1  UNL1       -0.2043
     15 C           2.1742   -0.0865   -2.3830 C.ar    1  UNL1       -0.0039
     16 S          -1.2130    2.1562   -2.0338 S.3     1  UNL1       -0.0488
     17 N          -3.0993    0.0986   -2.0173 N.ar    1  UNL1       -0.3284
     18 C          -2.2233    0.8434   -2.7237 C.ar    1  UNL1        0.1735
     19 N          -2.1735    0.4952   -4.0262 N.ar    1  UNL1       -0.2300
     20 C          -3.0498   -0.5254   -4.1275 C.ar    1  UNL1        0.0466
     21 C          -3.6118   -0.7780   -2.8956 C.ar    1  UNL1        0.0247
     22 C          -3.3610    0.1333   -0.5823 C.3     1  UNL1        0.0137
     23 N           3.4307   -1.5225   -0.8593 N.pl3   1  UNL1       -0.3573
     24 H           0.1059   -3.0857    6.3845 H       1  UNL1        0.0709
     25 H           0.1802   -0.5171    6.8475 H       1  UNL1        0.0835
     26 H           0.9767    0.6782    2.3078 H       1  UNL1        0.1571
     27 H          -0.5023    0.6563    0.3188 H       1  UNL1        0.0638
     28 H           2.9193   -0.2731   -3.1464 H       1  UNL1        0.0665
     29 H          -3.2585   -1.0600   -5.0443 H       1  UNL1        0.0845
     30 H          -4.3329   -1.5497   -2.6586 H       1  UNL1        0.0825
     31 H          -4.4042   -0.1887   -0.3780 H       1  UNL1        0.0456
     32 H          -2.6630   -0.5537   -0.0606 H       1  UNL1        0.0456
     33 H          -3.2308    1.1630   -0.1886 H       1  UNL1        0.0456
     34 H           3.6922   -1.8143    0.1071 H       1  UNL1        0.1423
     35 H           4.0951   -1.7672   -1.6271 H       1  UNL1        0.1423
@<TRIPOS>BOND
     1     1     2   ar
     2     2     3   ar
     3     3     4   ar
     4     1     5   ar
     5     4     5   ar
     6     5     6    1
     7     6     7   am
     8     7     8    2
     9     7    10    1
    10     9    10   ar
    11    10    11   ar
    12    11    12   ar
    13    12    13   ar
    14    13    14    1
    15     9    15   ar
    16    13    15   ar
    17    12    16    1
    18    16    18    1
    19    17    18   ar
    20    18    19   ar
    21    19    20   ar
    22    17    21   ar
    23    20    21   ar
    24    17    22    1
    25     9    23    1
    26     2    24    1
    27     3    25    1
    28     6    26    1
    29    11    27    1
    30    15    28    1
    31    20    29    1
    32    21    30    1
    33    22    31    1
    34    22    32    1
    35    22    33    1
    36    23    34    1
    37    23    35    1
