7UJF_R3V_C_601
     RDKit          3D

 32 36  0  0  0  0  0  0  0  0999 V2000
    2.0174  -20.2117  -37.0906 C   0  0  0  0  0  0  0  0  0  0  0  0
    3.1985  -20.5632  -37.9325 C   0  0  1  0  0  0  0  0  0  0  0  0
    3.7865  -21.9235  -37.4601 C   0  0  0  0  0  0  0  0  0  0  0  0
    2.7090  -20.6317  -39.3074 C   0  0  0  0  0  0  0  0  0  0  0  0
    1.3840  -19.8429  -39.2877 C   0  0  0  0  0  0  0  0  0  0  0  0
    1.3767  -19.2409  -37.9513 N   0  0  0  0  0  0  0  0  0  0  0  0
    0.0909  -18.9367  -37.4906 C   0  0  0  0  0  0  0  0  0  0  0  0
   -0.7680  -18.4072  -38.6533 C   0  0  0  0  0  0  0  0  0  0  0  0
   -0.3453  -17.0683  -38.9105 O   0  0  0  0  0  0  0  0  0  0  0  0
   -0.6909  -16.4965  -40.1737 C   0  0  0  0  0  0  0  0  0  0  0  0
   -1.0440  -17.3894  -41.3580 C   0  0  0  0  0  0  0  0  0  0  0  0
   -1.3770  -16.8433  -42.5814 C   0  0  0  0  0  0  0  0  0  0  0  0
   -0.6787  -15.1383  -40.3033 C   0  0  0  0  0  0  0  0  0  0  0  0
   -1.0400  -14.5466  -41.6642 C   0  0  0  0  0  0  0  0  0  0  0  0
   -1.3550  -15.3366  -42.7438 C   0  0  0  0  0  0  0  0  0  0  0  0
   -1.7190  -14.6691  -44.0606 C   0  0  2  0  0  0  0  0  0  0  0  0
   -2.4864  -15.6330  -44.7917 C   0  0  0  0  0  0  0  0  0  0  0  0
   -3.8378  -15.9725  -44.1843 C   0  0  0  0  0  0  0  0  0  0  0  0
   -4.6030  -16.9038  -44.8600 C   0  0  0  0  0  0  0  0  0  0  0  0
   -4.1111  -17.5637  -46.1501 C   0  0  0  0  0  0  0  0  0  0  0  0
   -4.9055  -18.5246  -46.7756 O   0  0  0  0  0  0  0  0  0  0  0  0
   -2.8981  -17.2413  -46.7182 C   0  0  0  0  0  0  0  0  0  0  0  0
   -2.0964  -16.2376  -45.9173 C   0  0  0  0  0  0  0  0  0  0  0  0
   -0.7804  -16.0672  -46.7242 C   0  0  0  0  0  0  0  0  0  0  0  0
    0.1661  -15.4699  -45.6493 C   0  0  0  0  0  0  0  0  0  0  0  0
   -0.5244  -14.3146  -44.8860 C   0  0  2  0  0  0  0  0  0  0  0  0
    0.4983  -13.5612  -44.0159 C   0  0  0  0  0  0  0  0  0  0  0  0
    1.6544  -14.1797  -43.5804 C   0  0  0  0  0  0  0  0  0  0  0  0
    2.5679  -13.4823  -42.7959 C   0  0  0  0  0  0  0  0  0  0  0  0
    2.3083  -12.1552  -42.4625 C   0  0  0  0  0  0  0  0  0  0  0  0
    1.1561  -11.5303  -42.9056 C   0  0  0  0  0  0  0  0  0  0  0  0
    0.2423  -12.2301  -43.6876 C   0  0  0  0  0  0  0  0  0  0  0  0
  1  2  1  0
  2  3  1  1
  2  4  1  0
  4  5  1  0
  1  6  1  0
  5  6  1  0
  6  7  1  0
  7  8  1  0
  8  9  1  0
  9 10  1  0
 10 11  2  0
 11 12  1  0
 10 13  1  0
 13 14  2  0
 14 15  1  0
 12 15  2  0
 16 15  1  1
 16 17  1  0
 17 18  2  0
 18 19  1  0
 19 20  2  0
 20 21  1  0
 20 22  1  0
 17 23  1  0
 22 23  2  0
 23 24  1  0
 24 25  1  0
 16 26  1  0
 25 26  1  0
 26 27  1  1
 27 28  2  0
 28 29  1  0
 29 30  2  0
 30 31  1  0
 31 32  2  0
 27 32  1  0
M  END
