
     RDKit          3D

 36 38  0  0  0  0  0  0  0  0999 V2000
  -16.8217  -24.9852  -29.1510 N   0  0  0  0  0  0  0  0  0  0  0  0
  -16.3408  -25.4142  -30.3837 C   0  0  0  0  0  0  0  0  0  0  0  0
  -15.5744  -24.5178  -31.0760 N   0  0  0  0  0  0  0  0  0  0  0  0
  -15.2482  -23.2574  -30.6645 C   0  0  0  0  0  0  0  0  0  0  0  0
  -15.7066  -22.8901  -29.3175 C   0  0  0  0  0  0  0  0  0  0  0  0
  -16.4681  -23.7504  -28.6369 C   0  0  0  0  0  0  0  0  0  0  0  0
  -16.5416  -26.5327  -30.8540 O   0  0  0  0  0  0  0  0  0  0  0  0
  -14.6269  -22.4683  -31.3593 O   0  0  0  0  0  0  0  0  0  0  0  0
  -17.7202  -25.9052  -28.4300 C   0  0  1  0  0  0  0  0  0  0  0  0
  -17.3763  -26.0336  -26.9474 C   0  0  2  0  0  0  0  0  0  0  0  0
  -16.4084  -27.0337  -26.6459 O   0  0  0  0  0  0  0  0  0  0  0  0
  -18.7201  -26.4260  -26.3519 C   0  0  1  0  0  0  0  0  0  0  0  0
  -19.7221  -25.6696  -27.2025 C   0  0  2  0  0  0  0  0  0  0  0  0
  -19.0941  -25.4485  -28.4818 O   0  0  0  0  0  0  0  0  0  0  0  0
  -18.9161  -27.8264  -26.4955 O   0  0  0  0  0  0  0  0  0  0  0  0
  -20.0754  -24.3137  -26.6075 C   0  0  0  0  0  0  0  0  0  0  0  0
  -19.1348  -23.3577  -27.0296 O   0  0  0  0  0  0  0  0  0  0  0  0
  -19.3741  -21.8482  -26.5169 P   0  0  1  0  0  5  0  0  0  0  0  0
  -18.1265  -21.0195  -26.4406 O   0  0  0  0  0  0  0  0  0  0  0  0
  -20.4130  -21.3381  -27.6249 O   0  0  0  0  0  0  0  0  0  0  0  0
  -20.2538  -22.0010  -25.2107 O   0  0  0  0  0  0  0  0  0  0  0  0
  -20.1466  -21.2861  -23.7942 P   0  0  1  0  0  5  0  0  0  0  0  0
  -20.8987  -22.0054  -22.7207 O   0  0  0  0  0  0  0  0  0  0  0  0
  -18.5777  -21.2350  -23.4893 O   0  0  0  0  0  0  0  0  0  0  0  0
  -20.5902  -19.7694  -24.0262 O   0  0  0  0  0  0  0  0  0  0  0  0
  -21.0590  -18.9500  -22.9780 C   0  0  2  0  0  0  0  0  0  0  0  0
  -20.6525  -17.4570  -23.1462 C   0  0  1  0  0  0  0  0  0  0  0  0
  -20.0820  -16.8940  -21.8411 C   0  0  2  0  0  0  0  0  0  0  0  0
  -20.9972  -17.3140  -20.6966 C   0  0  1  0  0  0  0  0  0  0  0  0
  -20.9589  -18.8472  -20.5640 C   0  0  1  0  0  0  0  0  0  0  0  0
  -22.2856  -19.4175  -20.0344 C   0  0  0  0  0  0  0  0  0  0  0  0
  -19.7453  -17.2266  -24.2495 O   0  0  0  0  0  0  0  0  0  0  0  0
  -20.0022  -15.4712  -21.9427 O   0  0  0  0  0  0  0  0  0  0  0  0
  -20.5788  -16.6823  -19.4886 O   0  0  0  0  0  0  0  0  0  0  0  0
  -20.5415  -19.5024  -21.7667 O   0  0  0  0  0  0  0  0  0  0  0  0
  -22.3311  -20.8218  -20.2537 O   0  0  0  0  0  0  0  0  0  0  0  0
  1  2  4  0
  2  3  4  0
  3  4  4  0
  4  5  4  0
  1  6  4  0
  5  6  4  0
  2  7  2  0
  4  8  2  0
  9  1  1  1
  9 10  1  0
 10 11  1  6
 10 12  1  0
 12 13  1  0
  9 14  1  0
 13 14  1  0
 12 15  1  6
 13 16  1  1
 16 17  1  0
 17 18  1  0
 18 19  2  0
 18 20  1  6
 18 21  1  0
 21 22  1  0
 22 23  2  0
 22 24  1  1
 22 25  1  0
 26 25  1  6
 26 27  1  0
 27 28  1  0
 28 29  1  0
 29 30  1  0
 30 31  1  6
 27 32  1  6
 28 33  1  6
 29 34  1  1
 26 35  1  0
 30 35  1  0
 31 36  1  0
M  END
