7VKZ_NOJ_A_801
     RDKit          3D

 24 24  0  0  0  0  0  0  0  0999 V2000
   29.5841    4.1746   33.3272 C   0  0  2  0  0  0  0  0  0  0  0  0
   28.9843    3.5535   32.0599 C   0  0  2  0  0  0  0  0  0  0  0  0
   29.9694    3.4530   31.0638 O   0  0  0  0  0  0  0  0  0  0  0  0
   27.8019    4.4013   31.5292 C   0  0  1  0  0  0  0  0  0  0  0  0
   26.8196    3.5579   30.9832 O   0  0  0  0  0  0  0  0  0  0  0  0
   27.1599    5.2942   32.6242 C   0  0  2  0  0  0  0  0  0  0  0  0
   27.8053    6.5432   32.6649 O   0  0  0  0  0  0  0  0  0  0  0  0
   27.2359    4.6532   34.0351 C   0  0  2  0  0  0  0  0  0  0  0  0
   28.5992    4.2140   34.4202 N   0  0  0  0  0  0  0  0  0  0  0  0
   26.2590    3.4761   34.1798 C   0  0  1  0  0  0  0  0  0  0  0  0
   26.3443    2.9479   35.4748 O   0  0  0  0  0  0  0  0  0  0  0  0
   29.9677    5.1966   33.1104 H   0  0  0  0  0  0  0  0  0  0  0  0
   30.4492    3.5602   33.6575 H   0  0  0  0  0  0  0  0  0  0  0  0
   28.6163    2.5324   32.3179 H   0  0  0  0  0  0  0  0  0  0  0  0
   30.8009    3.8453   31.4391 H   0  0  0  0  0  0  0  0  0  0  0  0
   28.1722    5.0779   30.7222 H   0  0  0  0  0  0  0  0  0  0  0  0
   27.2709    2.9944   30.3013 H   0  0  0  0  0  0  0  0  0  0  0  0
   26.0852    5.4645   32.3737 H   0  0  0  0  0  0  0  0  0  0  0  0
   28.0573    6.7714   31.7318 H   0  0  0  0  0  0  0  0  0  0  0  0
   26.8916    5.4297   34.7580 H   0  0  0  0  0  0  0  0  0  0  0  0
   28.9695    4.8555   35.1606 H   0  0  0  0  0  0  0  0  0  0  0  0
   25.2192    3.8291   33.9967 H   0  0  0  0  0  0  0  0  0  0  0  0
   26.4978    2.6815   33.4404 H   0  0  0  0  0  0  0  0  0  0  0  0
   25.9175    3.6146   36.0734 H   0  0  0  0  0  0  0  0  0  0  0  0
  1  2  1  0
  2  3  1  0
  2  4  1  0
  4  5  1  0
  4  6  1  0
  6  7  1  0
  6  8  1  0
  1  9  1  0
  8  9  1  0
  8 10  1  0
 10 11  1  0
  1 12  1  6
  1 13  1  0
  2 14  1  1
  3 15  1  0
  4 16  1  6
  5 17  1  0
  6 18  1  6
  7 19  1  0
  8 20  1  1
  9 21  1  0
 10 22  1  6
 10 23  1  0
 11 24  1  0
M  END
