
     RDKit          3D

 29 32  0  0  0  0  0  0  0  0999 V2000
    3.4810   45.7764   59.2147 C   0  0  0  0  0  0  0  0  0  0  0  0
    2.1808   45.1852   59.6287 C   0  0  0  0  0  0  0  0  0  0  0  0
    1.0213   46.1685   57.7618 C   0  0  0  0  0  0  0  0  0  0  0  0
    4.5655   45.0073   58.8817 N   0  0  0  0  0  0  0  0  0  0  0  0
    5.3456   49.3492   58.7191 C   0  0  0  0  0  0  0  0  0  0  0  0
    6.0681   48.1579   58.4677 C   0  0  0  0  0  0  0  0  0  0  0  0
    5.3142   46.9901   58.6628 C   0  0  0  0  0  0  0  0  0  0  0  0
    3.9617   49.3926   59.1228 C   0  0  0  0  0  0  0  0  0  0  0  0
    5.6390   52.1268   61.7039 C   0  0  0  0  0  0  0  0  0  0  0  0
    6.9807   51.5464   62.1529 C   0  0  0  0  0  0  0  0  0  0  0  0
    6.8239   50.4423   63.1594 C   0  0  0  0  0  0  0  0  0  0  0  0
    3.7280   51.5092   60.4716 C   0  0  0  0  0  0  0  0  0  0  0  0
    3.1554   52.7685   60.6631 C   0  0  0  0  0  0  0  0  0  0  0  0
    6.9574   49.0992   62.7956 C   0  0  0  0  0  0  0  0  0  0  0  0
    3.3358   50.6988   59.3860 C   0  0  0  0  0  0  0  0  0  0  0  0
    3.9310   47.0636   59.0607 C   0  0  0  0  0  0  0  0  0  0  0  0
    3.1877   48.2171   59.2900 C   0  0  0  0  0  0  0  0  0  0  0  0
    2.1506   53.1980   59.8055 C   0  0  0  0  0  0  0  0  0  0  0  0
    1.7193   52.4057   58.7494 C   0  0  0  0  0  0  0  0  0  0  0  0
    2.3137   51.1608   58.5370 C   0  0  0  0  0  0  0  0  0  0  0  0
    5.6700   45.7005   58.5418 N   0  0  0  0  0  0  0  0  0  0  0  0
    1.5959   54.4025   59.9928 F   0  0  0  0  0  0  0  0  0  0  0  0
    1.3066   44.9216   58.4756 N   0  0  0  0  0  0  0  0  0  0  0  0
    1.8983   43.9491   57.5512 C   0  0  0  0  0  0  0  0  0  0  0  0
    4.7535   51.0807   61.2778 O   0  0  0  0  0  0  0  0  0  0  0  0
    6.5249   50.7216   64.4914 C   0  0  0  0  0  0  0  0  0  0  0  0
    6.3626   49.7787   65.4474 N   0  0  0  0  0  0  0  0  0  0  0  0
    6.5039   48.4919   65.0576 C   0  0  0  0  0  0  0  0  0  0  0  0
    6.7972   48.1063   63.7578 C   0  0  0  0  0  0  0  0  0  0  0  0
  1  2  1  0
  1  4  4  0
  5  6  4  0
  6  7  4  0
  5  8  4  0
  9 10  1  0
 10 11  1  0
 12 13  4  0
 11 14  4  0
  8 15  1  0
 12 15  4  0
  7 16  4  0
  1 16  4  0
 16 17  4  0
  8 17  4  0
 13 18  4  0
 18 19  4  0
 19 20  4  0
 15 20  4  0
  7 21  4  0
  4 21  4  0
 18 22  1  0
  3 23  1  0
  2 23  1  0
 23 24  1  0
 12 25  1  0
  9 25  1  0
 11 26  4  0
 26 27  4  0
 27 28  4  0
 14 29  4  0
 28 29  4  0
M  END
