
     RDKit          3D

 39 43  0  0  0  0  0  0  0  0999 V2000
  -67.1965  -35.5103   99.9298 C   0  0  0  0  0  0  0  0  0  0  0  0
  -67.4751  -36.2908   98.8356 C   0  0  0  0  0  0  0  0  0  0  0  0
  -65.4352  -36.6688   97.7840 C   0  0  0  0  0  0  0  0  0  0  0  0
  -64.2573  -36.9412   98.4547 C   0  0  0  0  0  0  0  0  0  0  0  0
  -63.0693  -36.4371   97.9258 C   0  0  0  0  0  0  0  0  0  0  0  0
  -61.7395  -36.7169   98.5909 C   0  0  0  0  0  0  0  0  0  0  0  0
  -61.6529  -38.6588   97.1100 C   0  0  0  0  0  0  0  0  0  0  0  0
  -60.9140  -39.9847   96.8859 C   0  0  0  0  0  0  0  0  0  0  0  0
  -60.7538  -40.8231   98.1710 C   0  0  0  0  0  0  0  0  0  0  0  0
  -60.7515  -42.3262   97.8773 C   0  0  0  0  0  0  0  0  0  0  0  0
  -59.5487  -42.7348   97.0739 C   0  0  0  0  0  0  0  0  0  0  0  0
  -61.8545  -40.4566   99.1710 C   0  0  0  0  0  0  0  0  0  0  0  0
  -61.8391  -38.9560   99.5049 C   0  0  0  0  0  0  0  0  0  0  0  0
  -63.1314  -35.6587   96.7584 C   0  0  0  0  0  0  0  0  0  0  0  0
  -64.3610  -35.4108   96.1518 C   0  0  0  0  0  0  0  0  0  0  0  0
  -64.5285  -34.6108   94.9184 C   0  0  0  0  0  0  0  0  0  0  0  0
  -65.5991  -33.7002   94.7984 C   0  0  0  0  0  0  0  0  0  0  0  0
  -65.7711  -32.9262   93.6492 C   0  0  0  0  0  0  0  0  0  0  0  0
  -64.8837  -33.0332   92.5859 C   0  0  0  0  0  0  0  0  0  0  0  0
  -73.7119  -33.9532  102.4097 C   0  0  0  0  0  0  0  0  0  0  0  0
  -71.5712  -32.8027  102.2773 C   0  0  0  0  0  0  0  0  0  0  0  0
  -70.3913  -33.6936  101.8307 C   0  0  0  0  0  0  0  0  0  0  0  0
  -71.3402  -33.2135   99.5723 C   0  0  0  0  0  0  0  0  0  0  0  0
  -72.6447  -33.6768  100.2596 C   0  0  0  0  0  0  0  0  0  0  0  0
  -69.2640  -34.4834   99.8491 C   0  0  0  0  0  0  0  0  0  0  0  0
  -63.8184  -33.9203   92.6867 C   0  0  0  0  0  0  0  0  0  0  0  0
  -63.6375  -34.6996   93.8341 C   0  0  0  0  0  0  0  0  0  0  0  0
  -68.6995  -36.0683   98.2643 C   0  0  0  0  0  0  0  0  0  0  0  0
  -72.8587  -33.0847  101.6022 N   0  0  0  0  0  0  0  0  0  0  0  0
  -70.1721  -33.5840  100.3822 N   0  0  0  0  0  0  0  0  0  0  0  0
  -68.0624  -34.6126  100.4455 N   0  0  0  0  0  0  0  0  0  0  0  0
  -61.3077  -38.1110   98.4227 N   0  0  0  0  0  0  0  0  0  0  0  0
  -65.5071  -35.9147   96.6664 N   0  0  0  0  0  0  0  0  0  0  0  0
  -69.5975  -35.1817   98.7472 N   0  0  0  0  0  0  0  0  0  0  0  0
  -66.6048  -37.2019   98.3161 O   0  0  0  0  0  0  0  0  0  0  0  0
  -59.7860  -42.7556   95.7497 O   0  0  0  0  0  0  0  0  0  0  0  0
  -58.4580  -43.0483   97.5208 O   0  0  0  0  0  0  0  0  0  0  0  0
  -67.0936  -31.8278   93.5515 Cl  0  0  0  0  0  0  0  0  0  0  0  0
  -62.7000  -34.0581   91.3845 Cl  0  0  0  0  0  0  0  0  0  0  0  0
  1  2  4  0
  3  4  4  0
  4  5  4  0
  5  6  1  0
  7  8  1  0
  8  9  1  0
  9 10  1  0
 10 11  1  0
  9 12  1  0
 12 13  1  0
  5 14  4  0
 14 15  4  0
 15 16  1  0
 16 17  4  0
 17 18  4  0
 18 19  4  0
 21 22  1  0
 23 24  1  0
 19 26  4  0
 26 27  4  0
 16 27  4  0
  2 28  4  0
 21 29  1  0
 24 29  1  0
 20 29  1  0
 25 30  1  0
 22 30  1  0
 23 30  1  0
  1 31  4  0
 25 31  4  0
  7 32  1  0
 13 32  1  0
  6 32  1  0
 15 33  4  0
  3 33  4  0
 28 34  4  0
 25 34  4  0
  3 35  1  0
  2 35  1  0
 11 36  1  0
 11 37  2  0
 18 38  1  0
 26 39  1  0
M  END
