
     RDKit          3D

 23 24  0  0  0  0  0  0  0  0999 V2000
   -6.0866   53.0827  118.6543 C   0  0  0  0  0  0  0  0  0  0  0  0
   -5.2709   52.5748  119.7041 O   0  0  0  0  0  0  0  0  0  0  0  0
   -5.7305   52.9166  120.9581 C   0  0  0  0  0  0  0  0  0  0  0  0
   -4.9181   53.7084  121.6471 N   0  0  0  0  0  0  0  0  0  0  0  0
   -5.3558   54.0328  122.8592 C   0  0  0  0  0  0  0  0  0  0  0  0
   -4.5049   54.9495  123.6816 C   0  0  0  0  0  0  0  0  0  0  0  0
   -6.5193   53.6328  123.3776 N   0  0  0  0  0  0  0  0  0  0  0  0
   -7.2491   52.8429  122.5939 C   0  0  0  0  0  0  0  0  0  0  0  0
   -8.4454   52.4359  123.1642 N   0  0  0  0  0  0  0  0  0  0  0  0
   -8.7066   51.1989  123.6606 C   0  0  0  0  0  0  0  0  0  0  0  0
   -8.4584   50.1298  123.1311 O   0  0  0  0  0  0  0  0  0  0  0  0
   -9.2972   51.2663  124.9190 N   0  0  0  0  0  0  0  0  0  0  0  0
  -10.8748   50.8473  125.2400 S   0  0  0  0  0  6  0  0  0  0  0  0
  -10.9889   50.7884  126.6826 O   0  0  0  0  0  0  0  0  0  0  0  0
  -11.7330   51.7342  124.4839 O   0  0  0  0  0  0  0  0  0  0  0  0
  -11.0556   49.1993  124.6254 C   0  0  0  0  0  0  0  0  0  0  0  0
  -12.1406   48.9229  123.7791 C   0  0  0  0  0  0  0  0  0  0  0  0
  -12.3330   47.6329  123.2846 C   0  0  0  0  0  0  0  0  0  0  0  0
  -11.4475   46.6165  123.6332 C   0  0  0  0  0  0  0  0  0  0  0  0
  -10.3670   46.8908  124.4740 C   0  0  0  0  0  0  0  0  0  0  0  0
  -10.1639   48.1827  124.9750 C   0  0  0  0  0  0  0  0  0  0  0  0
   -6.8984   52.4514  121.3824 N   0  0  0  0  0  0  0  0  0  0  0  0
   -8.7817   48.4145  125.9856 Cl  0  0  0  0  0  0  0  0  0  0  0  0
  1  2  1  0
  2  3  1  0
  3  4  4  0
  4  5  4  0
  5  6  1  0
  5  7  4  0
  7  8  4  0
  8  9  1  0
  9 10  1  0
 10 11  2  0
 10 12  1  0
 12 13  1  0
 13 14  2  0
 13 15  2  0
 13 16  1  0
 16 17  4  0
 17 18  4  0
 18 19  4  0
 19 20  4  0
 16 21  4  0
 20 21  4  0
  3 22  4  0
  8 22  4  0
 21 23  1  0
M  END
