7KZ9_XN7_B_601
     RDKit          3D

 11 10  0  0  0  0  0  0  0  0999 V2000
  -48.3506   33.0889   -3.2736 C   0  0  0  0  0  0  0  0  0  0  0  0
  -47.5058   33.9875   -2.3806 C   0  0  0  0  0  0  0  0  0  0  0  0
  -46.8575   32.0029   -1.3193 C   0  0  0  0  0  0  0  0  0  0  0  0
  -47.0275   32.2295    0.1708 C   0  0  0  0  0  0  0  0  0  0  0  0
  -47.0879   31.1844    2.4633 C   0  0  0  0  0  0  0  0  0  0  0  0
  -45.7215   30.7166    2.9411 C   0  0  0  0  0  0  0  0  0  0  0  0
  -46.3678   33.2078   -1.9528 N   0  0  0  0  0  0  0  0  0  0  0  0
  -47.1700   31.0704    1.0194 N   0  0  0  0  0  0  0  0  0  0  0  0
  -49.5008   33.8107   -3.6372 O   0  0  0  0  0  0  0  0  0  0  0  0
  -47.0146   33.3354    0.6203 O   0  0  0  0  0  0  0  0  0  0  0  0
  -45.5044   29.4117    2.4853 O   0  0  0  0  0  0  0  0  0  0  0  0
  1  2  1  0
  3  4  1  0
  5  6  1  0
  2  7  1  0
  3  7  1  0
  4  8  1  0
  5  8  1  0
  1  9  1  0
  4 10  2  0
  6 11  1  0
M  END
