
     RDKit          3D

 26 28  0  0  0  0  0  0  0  0999 V2000
  -28.6738  -64.8207  -13.1198 C   0  0  0  0  0  0  0  0  0  0  0  0
  -29.7513  -65.4413  -13.9646 C   0  0  0  0  0  0  0  0  0  0  0  0
  -30.0310  -66.6300  -13.9167 O   0  0  0  0  0  0  0  0  0  0  0  0
  -30.3967  -64.5572  -14.7890 N   0  0  0  0  0  0  0  0  0  0  0  0
  -31.8125  -64.7276  -15.1767 C   0  0  2  0  0  0  0  0  0  0  0  0
  -32.0513  -64.6149  -16.6984 C   0  0  1  0  0  0  0  0  0  0  0  0
  -31.4211  -65.6392  -17.4890 O   0  0  0  0  0  0  0  0  0  0  0  0
  -33.5504  -64.7026  -17.0202 C   0  0  2  0  0  0  0  0  0  0  0  0
  -33.7285  -64.4082  -18.4129 O   0  0  0  0  0  0  0  0  0  0  0  0
  -34.3746  -63.7365  -16.1604 C   0  0  1  0  0  0  0  0  0  0  0  0
  -35.8840  -63.9683  -16.3463 C   0  0  0  0  0  0  0  0  0  0  0  0
  -36.2859  -65.2137  -15.7746 O   0  0  0  0  0  0  0  0  0  0  0  0
  -34.0696  -63.8793  -14.7634 O   0  0  0  0  0  0  0  0  0  0  0  0
  -32.6963  -63.6596  -14.4760 C   0  0  1  0  0  0  0  0  0  0  0  0
  -32.4418  -63.7590  -13.0678 O   0  0  0  0  0  0  0  0  0  0  0  0
  -33.2619  -62.8815  -12.2894 C   0  0  0  0  0  0  0  0  0  0  0  0
  -32.6735  -61.4700  -12.3252 C   0  0  0  0  0  0  0  0  0  0  0  0
  -31.2276  -61.4308  -11.8778 C   0  0  0  0  0  0  0  0  0  0  0  0
  -30.2410  -60.8813  -12.7142 C   0  0  0  0  0  0  0  0  0  0  0  0
  -28.8998  -60.8059  -12.3122 C   0  0  0  0  0  0  0  0  0  0  0  0
  -28.5986  -61.2894  -11.0408 C   0  0  0  0  0  0  0  0  0  0  0  0
  -27.3655  -61.2903  -10.4638 O   0  0  0  0  0  0  0  0  0  0  0  0
  -27.5066  -61.8424   -9.2310 C   0  0  0  0  0  0  0  0  0  0  0  0
  -28.8147  -62.2011   -9.0090 C   0  0  0  0  0  0  0  0  0  0  0  0
  -29.5343  -61.8421  -10.1768 C   0  0  0  0  0  0  0  0  0  0  0  0
  -30.8745  -61.9188  -10.5985 C   0  0  0  0  0  0  0  0  0  0  0  0
  1  2  1  0
  2  3  2  0
  2  4  1  0
  5  4  1  6
  5  6  1  0
  6  7  1  6
  6  8  1  0
  8  9  1  6
  8 10  1  0
 10 11  1  1
 11 12  1  0
 10 13  1  0
  5 14  1  0
 13 14  1  0
 14 15  1  1
 15 16  1  0
 16 17  1  0
 17 18  1  0
 18 19  4  0
 19 20  4  0
 20 21  4  0
 21 22  4  0
 22 23  4  0
 23 24  4  0
 21 25  4  0
 24 25  4  0
 18 26  4  0
 25 26  4  0
M  END
