7U0U_FK5_B_201
     RDKit          3D

 57 60  0  0  0  0  0  0  0  0999 V2000
  -32.5709  -12.8615  -25.2551 C   0  0  0  0  0  0  0  0  0  0  0  0
  -32.9581  -13.2698  -26.6944 C   0  0  2  0  0  0  0  0  0  0  0  0
  -33.3808  -11.9917  -27.4484 C   0  0  0  0  0  0  0  0  0  0  0  0
  -34.4231  -12.2827  -28.5242 C   0  0  0  0  0  0  0  0  0  0  0  0
  -35.6802  -12.9418  -27.9445 C   0  0  0  0  0  0  0  0  0  0  0  0
  -35.4078  -13.7046  -26.6497 C   0  0  0  0  0  0  0  0  0  0  0  0
  -33.9241  -15.6475  -26.8283 C   0  0  0  0  0  0  0  0  0  0  0  0
  -32.5587  -16.2109  -27.1086 C   0  0  0  0  0  0  0  0  0  0  0  0
  -31.6901  -16.6160  -25.9124 C   0  0  1  0  0  0  0  0  0  0  0  0
  -32.2596  -16.9555  -24.5333 C   0  0  1  0  0  0  0  0  0  0  0  0
  -31.0527  -16.9899  -23.5648 C   0  0  0  0  0  0  0  0  0  0  0  0
  -29.7687  -17.5891  -24.1548 C   0  0  1  0  0  0  0  0  0  0  0  0
  -30.0914  -18.4616  -25.3650 C   0  0  1  0  0  0  0  0  0  0  0  0
  -30.7177  -19.8532  -25.0043 C   0  0  2  0  0  0  0  0  0  0  0  0
  -30.0551  -20.5508  -23.7713 C   0  0  0  0  0  0  0  0  0  0  0  0
  -30.8158  -20.3187  -22.4294 C   0  0  2  0  0  0  0  0  0  0  0  0
  -29.8999  -19.8766  -21.2386 C   0  0  0  0  0  0  0  0  0  0  0  0
  -30.2230  -18.4901  -20.6636 C   0  0  0  0  0  0  0  0  0  0  0  0
  -29.3165  -17.4864  -20.7112 C   0  0  0  0  0  0  0  0  0  0  0  0
  -29.5036  -16.0047  -20.3569 C   0  0  2  0  0  0  0  0  0  0  0  0
  -28.7253  -15.1416  -21.3772 C   0  0  0  0  0  0  0  0  0  0  0  0
  -29.3615  -13.8422  -21.8999 C   0  0  0  0  0  0  0  0  0  0  0  0
  -28.8773  -13.4689  -23.3228 C   0  0  1  0  0  0  0  0  0  0  0  0
  -29.3008  -12.0623  -23.8489 C   0  0  2  0  0  0  0  0  0  0  0  0
  -30.8423  -11.8128  -23.9334 C   0  0  1  0  0  0  0  0  0  0  0  0
  -31.2738  -10.3290  -23.8095 C   0  0  0  0  0  0  0  0  0  0  0  0
  -30.7191   -9.3061  -24.5027 C   0  0  0  0  0  0  0  0  0  0  0  0
  -29.8678   -9.3699  -25.7532 C   0  0  1  0  0  0  0  0  0  0  0  0
  -30.6990   -9.9354  -26.9155 C   0  0  0  0  0  0  0  0  0  0  0  0
  -29.8976   -9.9643  -28.2199 C   0  0  2  0  0  0  0  0  0  0  0  0
  -29.3555   -8.5616  -28.5488 C   0  0  1  0  0  0  0  0  0  0  0  0
  -28.5291   -7.9925  -27.4028 C   0  0  0  0  0  0  0  0  0  0  0  0
  -29.3217   -7.9730  -26.1003 C   0  0  0  0  0  0  0  0  0  0  0  0
  -33.2984  -16.0674  -23.8570 C   0  0  0  0  0  0  0  0  0  0  0  0
  -31.5776  -21.5961  -22.0477 C   0  0  0  0  0  0  0  0  0  0  0  0
  -31.5917  -18.3597  -20.0374 C   0  0  0  0  0  0  0  0  0  0  0  0
  -28.9542  -15.6408  -18.9655 C   0  0  0  0  0  0  0  0  0  0  0  0
  -29.7096  -16.2719  -17.8291 C   0  0  0  0  0  0  0  0  0  0  0  0
  -30.9240  -16.8220  -17.9409 C   0  0  0  0  0  0  0  0  0  0  0  0
  -28.6267  -11.8242  -25.2247 C   0  0  0  0  0  0  0  0  0  0  0  0
  -32.3576  -10.0844  -22.7841 C   0  0  0  0  0  0  0  0  0  0  0  0
  -27.7524  -16.3441  -23.7527 C   0  0  0  0  0  0  0  0  0  0  0  0
  -29.1370  -20.6964  -26.5925 C   0  0  0  0  0  0  0  0  0  0  0  0
  -30.8095  -11.7752  -29.4816 C   0  0  0  0  0  0  0  0  0  0  0  0
  -34.0651  -14.2671  -26.6824 N   0  0  0  0  0  0  0  0  0  0  0  0
  -31.3233  -12.3193  -25.2079 O   0  0  0  0  0  0  0  0  0  0  0  0
  -33.3234  -12.9418  -24.2909 O   0  0  0  0  0  0  0  0  0  0  0  0
  -34.8488  -16.4542  -26.7906 O   0  0  0  0  0  0  0  0  0  0  0  0
  -32.1795  -16.1882  -28.2759 O   0  0  0  0  0  0  0  0  0  0  0  0
  -30.8689  -17.7235  -26.3532 O   0  0  0  0  0  0  0  0  0  0  0  0
  -30.8878  -15.4320  -25.7870 O   0  0  0  0  0  0  0  0  0  0  0  0
  -28.9137  -16.5066  -24.5627 O   0  0  0  0  0  0  0  0  0  0  0  0
  -30.4921  -20.6954  -26.1577 O   0  0  0  0  0  0  0  0  0  0  0  0
  -27.5566  -15.4211  -21.6752 O   0  0  0  0  0  0  0  0  0  0  0  0
  -27.4391  -13.4721  -23.3812 O   0  0  0  0  0  0  0  0  0  0  0  0
  -30.7261  -10.3647  -29.3242 O   0  0  0  0  0  0  0  0  0  0  0  0
  -28.5319   -8.6360  -29.7159 O   0  0  0  0  0  0  0  0  0  0  0  0
  2  1  1  1
  3  2  1  1
  4  3  1  6
  4  5  1  0
  5  6  1  1
  7  8  1  0
  8  9  1  0
  9 10  1  0
 10 11  1  0
 11 12  1  6
 12 13  1  0
 13 14  1  0
 15 14  1  6
 15 16  1  0
 16 17  1  0
 17 18  1  6
 18 19  2  0
 20 19  1  6
 20 21  1  0
 22 21  1  1
 22 23  1  0
 23 24  1  0
 24 25  1  0
 25 26  1  6
 26 27  2  0
 28 27  1  1
 29 28  1  1
 29 30  1  0
 30 31  1  0
 31 32  1  0
 33 28  1  6
 32 33  1  6
 10 34  1  1
 16 35  1  1
 36 18  1  6
 20 37  1  0
 37 38  1  1
 38 39  2  0
 24 40  1  6
 41 26  1  1
  2 45  1  0
  6 45  1  1
  7 45  1  0
  1 46  1  0
 25 46  1  0
  1 47  2  0
  7 48  2  0
  8 49  2  0
  9 50  1  0
 13 50  1  6
  9 51  1  1
 12 52  1  6
 42 52  1  6
 14 53  1  6
 43 53  1  6
 21 54  2  0
 23 55  1  1
 30 56  1  6
 44 56  1  6
 31 57  1  6
M  END
$$$$
