8G0V_YHT_B_704
     RDKit          3D

 26 28  0  0  0  0  0  0  0  0999 V2000
  -11.7954    1.2991    7.2942 C   0  0  1  0  0  0  0  0  0  0  0  0
  -13.2498    0.8481    7.4448 C   0  0  2  0  0  0  0  0  0  0  0  0
  -13.1045   -0.6493    7.1938 C   0  0  2  0  0  0  0  0  0  0  0  0
  -11.8493   -2.3931    8.5435 C   0  0  0  0  0  0  0  0  0  0  0  0
  -13.0550   -2.5228   10.2934 C   0  0  0  0  0  0  0  0  0  0  0  0
  -13.6511   -1.5682    9.4893 C   0  0  0  0  0  0  0  0  0  0  0  0
  -10.0434   -2.8278    6.9791 C   0  0  0  0  0  0  0  0  0  0  0  0
  -11.1273   -2.4458    7.2562 C   0  0  0  0  0  0  0  0  0  0  0  0
   -9.8421    0.2115    6.0343 C   0  0  0  0  0  0  0  0  0  0  0  0
   -8.7171   -3.3085    6.5868 C   0  0  0  0  0  0  0  0  0  0  0  0
  -15.2612   -1.2104   10.9546 C   0  0  0  0  0  0  0  0  0  0  0  0
  -13.6770   -2.8031   11.5251 C   0  0  0  0  0  0  0  0  0  0  0  0
  -11.3326    0.4345    6.1198 C   0  0  1  0  0  0  0  0  0  0  0  0
  -12.8682   -1.4919    8.3630 N   0  0  0  0  0  0  0  0  0  0  0  0
  -11.9163   -3.0380    9.6836 N   0  0  0  0  0  0  0  0  0  0  0  0
  -14.7696   -0.8721    9.7673 N   0  0  0  0  0  0  0  0  0  0  0  0
  -14.7995   -2.1081   11.8330 N   0  0  0  0  0  0  0  0  0  0  0  0
  -13.2207   -3.6997   12.3967 N   0  0  0  0  0  0  0  0  0  0  0  0
  -11.6937    2.6953    7.0379 O   0  0  0  0  0  0  0  0  0  0  0  0
  -12.0117   -0.8331    6.2980 O   0  0  0  0  0  0  0  0  0  0  0  0
  -14.0277    1.3975    6.4063 O   0  0  0  0  0  0  0  0  0  0  0  0
   -9.5384   -0.7638    5.0148 O   0  0  0  0  0  0  0  0  0  0  0  0
   -7.0583   -0.1987    5.1497 O   0  0  0  0  0  0  0  0  0  0  0  0
   -7.8426   -2.2530    6.2175 O   0  0  0  0  0  0  0  0  0  0  0  0
   -7.9315   -2.1755    3.7471 O   0  0  0  0  0  0  0  0  0  0  0  0
   -8.0295   -1.3011    4.9405 P   0  0  1  0  0  0  0  0  0  0  0  0
  1  2  1  0
  2  3  1  0
  5  6  2  0
  7  8  3  0
  7 10  1  0
  5 12  1  0
 13  9  1  1
  1 13  1  0
  4 14  1  0
  6 14  1  0
  3 14  1  1
  4 15  2  0
  5 15  1  0
  6 16  1  0
 11 16  2  0
 12 17  2  0
 11 17  1  0
 12 18  1  0
  1 19  1  6
  3 20  1  0
 13 20  1  0
  2 21  1  6
  9 22  1  0
 10 24  1  0
 25 26  2  0
 24 26  1  0
 22 26  1  0
 26 23  1  6
M  END
