7MWU_ZPM_A_2002
     RDKit          3D

  7  7  0  0  0  0  0  0  0  0999 V2000
    4.9260   44.8988   37.5948 C   0  0  0  0  0  0  0  0  0  0  0  0
    4.4003   44.4422   36.2253 C   0  0  0  0  0  0  0  0  0  0  0  0
    3.5178   45.6578   36.2990 C   0  0  2  0  0  0  0  0  0  0  0  0
    3.5179   45.4156   37.8141 C   0  0  0  0  0  0  0  0  0  0  0  0
    2.1758   45.5454   35.6834 C   0  0  0  0  0  0  0  0  0  0  0  0
    1.7129   46.5216   34.8118 O   0  0  0  0  0  0  0  0  0  0  0  0
    1.4577   44.5340   35.9718 O   0  0  0  0  0  0  0  0  0  0  0  0
  1  2  1  0
  2  3  1  0
  3  4  1  0
  1  4  1  0
  3  5  1  6
  5  6  1  0
  5  7  2  0
M  END
$$$$
