7TB0_UD1_D_501
     RDKit          3D

 39 41  0  0  0  0  0  0  0  0999 V2000
   14.4378   -5.7276   88.7417 C   0  0  1  0  0  0  0  0  0  0  0  0
   13.6934   -6.7401   89.5743 C   0  0  1  0  0  0  0  0  0  0  0  0
   13.2827   -6.1554   90.8913 C   0  0  2  0  0  0  0  0  0  0  0  0
   12.3876   -4.9637   90.6052 C   0  0  1  0  0  0  0  0  0  0  0  0
   12.8823   -4.1694   89.4378 C   0  0  1  0  0  0  0  0  0  0  0  0
   12.7836   -2.6956   89.8223 C   0  0  0  0  0  0  0  0  0  0  0  0
   12.1057   -8.6071   89.1028 C   0  0  0  0  0  0  0  0  0  0  0  0
   12.1158   -9.6163   88.0101 C   0  0  0  0  0  0  0  0  0  0  0  0
   12.5246   -7.2499   88.8727 N   0  0  0  0  0  0  0  0  0  0  0  0
   14.1388   -5.9566   87.4202 O   0  0  0  0  0  0  0  0  0  0  0  0
   14.3910   -5.7799   91.6274 O   0  0  0  0  0  0  0  0  0  0  0  0
   11.0877   -5.4289   90.4469 O   0  0  0  0  0  0  0  0  0  0  0  0
   14.2184   -4.4117   89.1337 O   0  0  0  0  0  0  0  0  0  0  0  0
   13.7983   -2.3890   90.7437 O   0  0  0  0  0  0  0  0  0  0  0  0
   11.7137   -9.0014   90.2314 O   0  0  0  0  0  0  0  0  0  0  0  0
   14.9618   -0.9427   80.9171 N   0  0  0  0  0  0  0  0  0  0  0  0
   14.6829   -0.5167   79.6732 C   0  0  0  0  0  0  0  0  0  0  0  0
   15.6204   -0.0972   78.8050 N   0  0  0  0  0  0  0  0  0  0  0  0
   16.9270   -0.0783   79.1381 C   0  0  0  0  0  0  0  0  0  0  0  0
   17.2423   -0.5112   80.4115 C   0  0  0  0  0  0  0  0  0  0  0  0
   16.2567   -0.9368   81.2821 C   0  0  0  0  0  0  0  0  0  0  0  0
   13.4907   -0.5066   79.2948 O   0  0  0  0  0  0  0  0  0  0  0  0
   17.8280    0.3140   78.3333 O   0  0  0  0  0  0  0  0  0  0  0  0
   13.9958   -1.3955   81.8675 C   0  0  1  0  0  0  0  0  0  0  0  0
   13.8714   -2.8583   82.0500 C   0  0  2  0  0  0  0  0  0  0  0  0
   13.1117   -3.5146   81.0819 O   0  0  0  0  0  0  0  0  0  0  0  0
   12.9855   -2.8901   83.3076 C   0  0  1  0  0  0  0  0  0  0  0  0
   13.3245   -1.5782   83.9366 C   0  0  2  0  0  0  0  0  0  0  0  0
   14.3119   -0.9821   83.1799 O   0  0  0  0  0  0  0  0  0  0  0  0
   11.6464   -2.8263   82.9110 O   0  0  0  0  0  0  0  0  0  0  0  0
   13.7196   -1.7601   85.3916 C   0  0  0  0  0  0  0  0  0  0  0  0
   14.8984   -1.1400   85.7271 O   0  0  0  0  0  0  0  0  0  0  0  0
   16.0612   -2.3382   86.0580 P   0  0  2  0  0  5  0  0  0  0  0  0
   17.3331   -1.6904   86.5130 O   0  0  0  0  0  0  0  0  0  0  0  0
   16.3922   -3.1057   84.5775 O   0  0  0  0  0  0  0  0  0  0  0  0
   15.5007   -3.5161   87.1031 O   0  0  0  0  0  0  0  0  0  0  0  0
   14.4787   -4.6379   86.4137 P   0  0  1  0  0  5  0  0  0  0  0  0
   15.1438   -5.2054   85.1657 O   0  0  0  0  0  0  0  0  0  0  0  0
   13.0006   -3.9780   85.9275 O   0  0  0  0  0  0  0  0  0  0  0  0
  1  2  1  0
  2  3  1  0
  3  4  1  0
  4  5  1  0
  5  6  1  0
  8  7  1  1
  2  9  1  6
  7  9  1  0
  1 10  1  6
  3 11  1  6
  4 12  1  6
  1 13  1  0
  5 13  1  1
  6 14  1  1
  7 15  2  0
 16 17  1  0
 17 18  1  0
 18 19  1  0
 19 20  1  0
 16 21  1  0
 20 21  2  0
 17 22  2  0
 19 23  2  0
 24 16  1  6
 24 25  1  0
 25 26  1  6
 25 27  1  0
 27 28  1  0
 24 29  1  0
 28 29  1  6
 27 30  1  6
 28 31  1  0
 31 32  1  6
 33 32  1  0
 33 34  2  0
 33 35  1  6
 33 36  1  0
 37 10  1  0
 36 37  1  0
 37 38  2  0
 37 39  1  6
M  END
$$$$
