7BNH_BEZ_A_501
     RDKit          3D

  9  9  0  0  0  0  0  0  0  0999 V2000
   -0.0211  -13.6802    8.7961 C   0  0  0  0  0  0  0  0  0  0  0  0
    0.9270  -13.5803    7.9754 O   0  0  0  0  0  0  0  0  0  0  0  0
   -1.0599  -14.5284    8.4519 O   0  0  0  0  0  0  0  0  0  0  0  0
    0.0145  -12.9189   10.0405 C   0  0  0  0  0  0  0  0  0  0  0  0
    1.1075  -12.0923   10.2367 C   0  0  0  0  0  0  0  0  0  0  0  0
    1.1287  -11.3706   11.4300 C   0  0  0  0  0  0  0  0  0  0  0  0
    0.1159  -11.4797   12.3557 C   0  0  0  0  0  0  0  0  0  0  0  0
   -0.9632  -12.3134   12.1326 C   0  0  0  0  0  0  0  0  0  0  0  0
   -1.0067  -13.0386   10.9576 C   0  0  0  0  0  0  0  0  0  0  0  0
  1  2  2  0
  1  3  1  0
  1  4  1  0
  4  5  2  0
  5  6  1  0
  6  7  2  0
  7  8  1  0
  4  9  1  0
  8  9  2  0
M  END
$$$$
