7R3D_APR_BBB_401
     RDKit          3D

 36 39  0  0  0  0  0  0  0  0999 V2000
   -7.6234   21.1302   -8.6635 N   0  0  0  0  0  0  0  0  0  0  0  0
   -6.3788   20.6604   -8.4036 C   0  0  0  0  0  0  0  0  0  0  0  0
   -5.3278   21.1781   -9.1013 N   0  0  0  0  0  0  0  0  0  0  0  0
   -5.5214   22.1450  -10.0381 C   0  0  0  0  0  0  0  0  0  0  0  0
   -6.7874   22.6237  -10.3033 C   0  0  0  0  0  0  0  0  0  0  0  0
   -7.8490   22.0905   -9.5883 C   0  0  0  0  0  0  0  0  0  0  0  0
   -9.1678   22.5608   -9.8360 N   0  0  0  0  0  0  0  0  0  0  0  0
   -6.6675   23.5656  -11.2684 N   0  0  0  0  0  0  0  0  0  0  0  0
   -5.3650   23.6830  -11.6073 C   0  0  0  0  0  0  0  0  0  0  0  0
   -4.6594   22.8142  -10.8556 N   0  0  0  0  0  0  0  0  0  0  0  0
   -3.2399   22.5537  -10.8354 C   0  0  1  0  0  0  0  0  0  0  0  0
   -2.9013   21.7677  -12.0709 C   0  0  2  0  0  0  0  0  0  0  0  0
   -1.9927   20.7182  -11.8147 O   0  0  0  0  0  0  0  0  0  0  0  0
   -2.1525   22.7751  -12.9124 C   0  0  2  0  0  0  0  0  0  0  0  0
   -1.1111   22.1809  -13.6196 O   0  0  0  0  0  0  0  0  0  0  0  0
   -2.4613   23.6904  -10.7933 O   0  0  0  0  0  0  0  0  0  0  0  0
   -1.6322   23.7096  -11.8760 C   0  0  2  0  0  0  0  0  0  0  0  0
   -1.3518   25.0888  -12.4358 C   0  0  0  0  0  0  0  0  0  0  0  0
   -0.3518   24.9235  -13.4216 O   0  0  0  0  0  0  0  0  0  0  0  0
   -0.3065   26.3973  -14.2770 P   0  0  2  0  0  0  0  0  0  0  0  0
   -1.3950   27.3015  -13.7024 O   0  0  0  0  0  0  0  0  0  0  0  0
   -0.6982   26.0346  -15.8856 O   0  0  0  0  0  0  0  0  0  0  0  0
    1.1432   27.2041  -14.1106 O   0  0  0  0  0  0  0  0  0  0  0  0
    2.0166   27.3161  -15.5507 P   0  0  1  0  0  0  0  0  0  0  0  0
    1.7847   25.9878  -16.2771 O   0  0  0  0  0  0  0  0  0  0  0  0
    1.3403   28.5165  -16.4968 O   0  0  0  0  0  0  0  0  0  0  0  0
    3.6654   27.4526  -15.3323 O   0  0  0  0  0  0  0  0  0  0  0  0
    4.1061   28.6446  -14.8222 C   0  0  0  0  0  0  0  0  0  0  0  0
    6.2021   29.3550  -15.6172 O   0  0  0  0  0  0  0  0  0  0  0  0
    7.5368   31.1312  -15.9669 O   0  0  0  0  0  0  0  0  0  0  0  0
    7.1971   30.1533  -15.0636 C   0  0  1  0  0  0  0  0  0  0  0  0
    7.3324   31.3029  -12.9448 O   0  0  0  0  0  0  0  0  0  0  0  0
    6.4677   30.7208  -13.8420 C   0  0  2  0  0  0  0  0  0  0  0  0
    6.7363   28.7718  -12.4560 O   0  0  0  0  0  0  0  0  0  0  0  0
    5.8349   29.4499  -13.3070 C   0  0  2  0  0  0  0  0  0  0  0  0
    5.6049   28.6694  -14.5656 C   0  0  1  0  0  0  0  0  0  0  0  0
  1  2  2  0
  2  3  1  0
  3  4  2  0
  4  5  1  0
  1  6  1  0
  5  6  2  0
  6  7  1  0
  5  8  1  0
  8  9  2  0
  4 10  1  0
  9 10  1  0
 11 10  1  6
 11 12  1  0
 12 13  1  1
 12 14  1  0
 14 15  1  1
 11 16  1  0
 14 17  1  0
 16 17  1  0
 17 18  1  6
 18 19  1  0
 19 20  1  0
 20 21  2  0
 20 22  1  6
 20 23  1  0
 23 24  1  0
 24 25  2  0
 24 26  1  6
 24 27  1  0
 27 28  1  0
 29 31  1  0
 31 30  1  6
 31 33  1  0
 33 32  1  1
 33 35  1  0
 35 34  1  1
 36 28  1  6
 29 36  1  0
 35 36  1  0
M  END
$$$$
