1W2G_THM_B_1210
     RDKit          3D

 31 32  0  0  0  0  0  0  0  0999 V2000
   32.4987   32.1481   59.9449 O   0  0  0  0  0  0  0  0  0  0  0  0
   32.3867   30.8296   59.4857 C   0  0  0  0  0  0  0  0  0  0  0  0
   33.7938   30.2292   59.1261 C   0  0  2  0  0  0  0  0  0  0  0  0
   34.9453   30.6391   59.8808 O   0  0  0  0  0  0  0  0  0  0  0  0
   34.3998   30.2983   57.6799 C   0  0  2  0  0  0  0  0  0  0  0  0
   35.0950   29.0783   57.1417 O   0  0  0  0  0  0  0  0  0  0  0  0
   35.1748   31.6399   57.8496 C   0  0  0  0  0  0  0  0  0  0  0  0
   35.8367   31.4750   59.1914 C   0  0  1  0  0  0  0  0  0  0  0  0
   36.0079   32.6863   60.0423 N   0  0  0  0  0  4  0  0  0  0  0  0
   37.2452   33.2437   60.1862 C   0  0  0  0  0  0  0  0  0  0  0  0
   38.2251   32.6943   59.5872 O   0  0  0  0  0  0  0  0  0  0  0  0
   37.4560   34.3419   60.9276 N   0  0  0  0  0  4  0  0  0  0  0  0
   36.4372   34.9270   61.5566 C   0  0  0  0  0  0  0  0  0  0  0  0
   36.6704   36.0056   62.2714 O   0  0  0  0  0  0  0  0  0  0  0  0
   35.1328   34.3864   61.4444 C   0  0  0  0  0  0  0  0  0  0  0  0
   33.9484   35.0256   62.1463 C   0  0  0  0  0  0  0  0  0  0  0  0
   34.9367   33.2361   60.6609 C   0  0  0  0  0  0  0  0  0  0  0  0
   31.6172   32.4920   60.1587 H   0  0  0  0  0  0  0  0  0  0  0  0
   31.9374   30.2310   60.2505 H   0  0  0  0  0  0  0  0  0  0  0  0
   31.7835   30.8296   58.6019 H   0  0  0  0  0  0  0  0  0  0  0  0
   33.3963   29.2621   59.3535 H   0  0  0  0  0  0  0  0  0  0  0  0
   33.7054   30.2917   56.8658 H   0  0  0  0  0  0  0  0  0  0  0  0
   35.8285   28.8385   57.7294 H   0  0  0  0  0  0  0  0  0  0  0  0
   35.9014   31.7661   57.0744 H   0  0  0  0  0  0  0  0  0  0  0  0
   34.5454   32.5032   57.7909 H   0  0  0  0  0  0  0  0  0  0  0  0
   36.8356   31.1353   59.0135 H   0  0  0  0  0  0  0  0  0  0  0  0
   38.3634   34.7155   61.0071 H   0  0  0  0  0  0  0  0  0  0  0  0
   34.2785   35.8840   62.6931 H   0  0  0  0  0  0  0  0  0  0  0  0
   33.2213   35.3232   61.4199 H   0  0  0  0  0  0  0  0  0  0  0  0
   33.5102   34.3199   62.8209 H   0  0  0  0  0  0  0  0  0  0  0  0
   33.9976   32.8201   60.5597 H   0  0  0  0  0  0  0  0  0  0  0  0
  1  2  1  0
  3  2  1  0
  3  4  1  0
  3  5  1  0
  5  6  1  0
  5  7  1  0
  4  8  1  0
  7  8  1  0
  8  9  1  0
  9 10  4  0
 10 11  2  0
 10 12  4  0
 12 13  4  0
 13 14  2  0
 13 15  4  0
 15 16  1  0
  9 17  4  0
 15 17  4  0
  1 18  1  0
  2 19  1  0
  2 20  1  0
  3 21  1  6
  5 22  1  1
  6 23  1  0
  7 24  1  0
  7 25  1  0
  8 26  1  1
 12 27  1  0
 16 28  1  0
 16 29  1  0
 16 30  1  0
 17 31  1  0
M  CHG  2   9   1  12   1
M  END
