@<TRIPOS>MOLECULE
1W2G_THM_B_1210
 31 32 0 0 0
SMALL
GASTEIGER

@<TRIPOS>ATOM
      1 O5*        -2.5405    0.7973    3.0368 O.3     1    T1       -0.3924
      2 C5*        -2.1793   -0.1479    2.0653 C.3     1    T1        0.0729
      3 C4*        -0.6605   -0.3630    2.0565 C.3     1    T1        0.1100
      4 O4*        -0.3375   -1.4057    1.1669 O.3     1    T1       -0.3483
      5 C3*         0.1017    0.8803    1.6198 C.3     1    T1        0.0876
      6 O3*         0.3995    1.6983    2.7209 O.3     1    T1       -0.3890
      7 C2*         1.3487    0.3016    1.0103 C.3     1    T1        0.0214
      8 C1*         0.9335   -1.1161    0.6183 C.3     1    T1        0.1422
      9 N1          0.9014   -1.2618   -0.8528 N.ar    1    T1       -0.2737
     10 C2          1.9708   -1.7898   -1.5329 C.ar    1    T1        0.3313
     11 O2          2.9955   -2.1862   -0.9119 O.2     1    T1       -0.2464
     12 N3          1.9424   -1.8862   -2.8901 N.ar    1    T1       -0.2747
     13 C4          0.8731   -1.4534   -3.6071 C.ar    1    T1        0.2568
     14 O4          0.8839   -1.5498   -4.8646 O.2     1    T1       -0.2674
     15 C5         -0.2290   -0.8986   -2.9473 C.ar    1    T1        0.0302
     16 C5M        -1.4121   -0.3720   -3.7115 C.3     1    T1       -0.0332
     17 C6         -0.1785   -0.7967   -1.5536 C.ar    1    T1        0.0199
     18 H5*        -2.4665    1.6904    2.6100 H       1    T1        0.2095
     19 H5*1       -2.5410    0.1577    1.0561 H       1    T1        0.0584
     20 H5*2       -2.6747   -1.1099    2.3160 H       1    T1        0.0584
     21 H4*        -0.3373   -0.6667    3.0790 H       1    T1        0.0646
     22 H3*        -0.4704    1.4452    0.8458 H       1    T1        0.0621
     23 H3*         0.7484    2.5505    2.3503 H       1    T1        0.2099
     24 H2*1        1.6878    0.9072    0.1409 H       1    T1        0.0335
     25 H2*2        2.1691    0.2579    1.7616 H       1    T1        0.0335
     26 H1*         1.6518   -1.8391    1.0652 H       1    T1        0.0840
     27 H3          2.7641   -2.2943   -3.3925 H       1    T1        0.1734
     28 H5M1       -1.7366   -1.1141   -4.4713 H       1    T1        0.0280
     29 H5M2       -2.2728   -0.1730   -3.0379 H       1    T1        0.0280
     30 H5M3       -1.1323    0.5734   -4.2216 H       1    T1        0.0280
     31 H6         -1.0100   -0.3388   -1.0311 H       1    T1        0.0816
@<TRIPOS>BOND
     1     1     2    1
     2     3     2    1
     3     3     4    1
     4     3     5    1
     5     5     6    1
     6     5     7    1
     7     4     8    1
     8     7     8    1
     9     8     9    1
    10     9    10   ar
    11    10    11    2
    12    10    12   ar
    13    12    13   ar
    14    13    14    2
    15    13    15   ar
    16    15    16    1
    17     9    17   ar
    18    15    17   ar
    19     1    18    1
    20     2    19    1
    21     2    20    1
    22     3    21    1
    23     5    22    1
    24     6    23    1
    25     7    24    1
    26     7    25    1
    27     8    26    1
    28    12    27    1
    29    16    28    1
    30    16    29    1
    31    16    30    1
    32    17    31    1
