1KE5_LS1_A_299
     RDKit          3D

 23 25  0  0  0  0  0  0  0  0999 V2000
   -7.5909   51.1685   39.3563 N   0  0  0  0  0  0  0  0  0  0  0  0
   -6.8499   50.4085   40.2015 C   0  0  0  0  0  0  0  0  0  0  0  0
   -5.5616   50.0474   39.5212 C   0  0  0  0  0  0  0  0  0  0  0  0
   -4.7122   50.6261   37.0474 C   0  0  0  0  0  0  0  0  0  0  0  0
   -5.1175   51.3387   35.8043 C   0  0  0  0  0  0  0  0  0  0  0  0
   -6.4198   52.0474   35.7538 C   0  0  0  0  0  0  0  0  0  0  0  0
   -7.3499   52.0059   36.9219 C   0  0  0  0  0  0  0  0  0  0  0  0
   -6.9337   51.3129   38.1560 C   0  0  0  0  0  0  0  0  0  0  0  0
   -5.6496   50.6356   38.2141 C   0  0  0  0  0  0  0  0  0  0  0  0
   -7.1656   50.0025   41.3282 O   0  0  0  0  0  0  0  0  0  0  0  0
   -4.5885   49.2755   40.0177 C   0  0  0  0  0  0  0  0  0  0  0  0
   -4.6934   48.5511   41.2937 N   0  0  0  0  0  0  0  0  0  0  0  0
   -3.7953   47.6601   41.7645 C   0  0  0  0  0  0  0  0  0  0  0  0
   -3.7532   46.2033   41.3935 C   0  0  0  0  0  0  0  0  0  0  0  0
   -2.7363   45.3405   41.9540 C   0  0  0  0  0  0  0  0  0  0  0  0
   -1.7430   45.8967   42.8794 C   0  0  0  0  0  0  0  0  0  0  0  0
   -1.7811   47.3270   43.2822 C   0  0  0  0  0  0  0  0  0  0  0  0
   -2.8091   48.2116   42.7185 C   0  0  0  0  0  0  0  0  0  0  0  0
   -0.6922   44.7681   43.7167 S   0  0  2  0  0  0  0  0  0  0  0  0
   -1.5291   43.8464   44.4099 O   0  0  0  0  0  0  0  0  0  0  0  0
    0.2500   45.5187   44.4918 O   0  0  0  0  0  0  0  0  0  0  0  0
    0.2425   43.9645   42.6196 N   0  0  0  0  0  0  0  0  0  0  0  0
   -0.1573   43.2915   41.3921 C   0  0  0  0  0  0  0  0  0  0  0  0
  1  2  1  0
  2  3  1  0
  4  5  1  0
  5  6  2  0
  6  7  1  0
  1  8  1  0
  7  8  2  0
  3  9  1  0
  4  9  2  0
  8  9  1  0
  2 10  2  0
  3 11  2  0
 11 12  1  0
 12 13  1  0
 13 14  2  0
 14 15  1  0
 15 16  2  0
 16 17  1  0
 13 18  1  0
 17 18  2  0
 16 19  1  0
 19 20  2  0
 19 21  2  0
 19 22  1  6
 22 23  1  0
M  END
