7M6K_YRJ_A_701
     RDKit          3D

 33 35  0  0  0  0  0  0  0  0999 V2000
    0.4801  -13.7285  -38.4487 C   0  0  0  0  0  0  0  0  0  0  0  0
    2.2147  -12.3065  -37.6644 C   0  0  0  0  0  0  0  0  0  0  0  0
    1.5596  -10.2418  -36.4003 C   0  0  0  0  0  0  0  0  0  0  0  0
    0.8630   -7.8093  -36.4041 C   0  0  0  0  0  0  0  0  0  0  0  0
    1.2716   -5.1749  -35.4843 C   0  0  0  0  0  0  0  0  0  0  0  0
    0.6676   -2.8214  -35.4961 C   0  0  0  0  0  0  0  0  0  0  0  0
   -4.1348  -12.9081  -38.1290 C   0  0  1  0  0  0  0  0  0  0  0  0
   -2.8805  -12.7580  -37.2536 C   0  0  2  0  0  0  0  0  0  0  0  0
   -1.8429  -13.3437  -38.1309 C   0  0  2  0  0  0  0  0  0  0  0  0
   -3.5781  -13.6149  -39.3452 C   0  0  1  0  0  0  0  0  0  0  0  0
   -4.4042  -13.4215  -40.5869 C   0  0  0  0  0  0  0  0  0  0  0  0
    1.8173  -13.4368  -38.3280 C   0  0  0  0  0  0  0  0  0  0  0  0
    1.2544  -11.4779  -37.1261 C   0  0  0  0  0  0  0  0  0  0  0  0
   -0.0871  -11.8365  -37.2868 C   0  0  0  0  0  0  0  0  0  0  0  0
    0.2051   -5.4806  -36.2929 C   0  0  0  0  0  0  0  0  0  0  0  0
    1.4883   -3.8494  -35.0970 C   0  0  0  0  0  0  0  0  0  0  0  0
   -0.4086   -3.1302  -36.3119 C   0  0  0  0  0  0  0  0  0  0  0  0
   -0.6103   -4.4415  -36.6861 C   0  0  0  0  0  0  0  0  0  0  0  0
   -0.4927  -12.9224  -37.9239 N   0  0  0  0  0  0  0  0  0  0  0  0
    0.7075   -9.1428  -36.7969 N   0  0  0  0  0  0  0  0  0  0  0  0
   -0.1003   -6.7975  -36.7387 N   0  0  0  0  0  0  0  0  0  0  0  0
    0.8621   -1.4653  -35.1173 N   0  0  0  0  0  0  0  0  0  0  0  0
   -5.0354  -13.7707  -37.5333 O   0  0  0  0  0  0  0  0  0  0  0  0
   -3.0385  -13.5828  -36.1410 O   0  0  0  0  0  0  0  0  0  0  0  0
   -2.3136  -13.0313  -39.4180 O   0  0  0  0  0  0  0  0  0  0  0  0
   -3.6395  -12.6982  -41.5025 O   0  0  0  0  0  0  0  0  0  0  0  0
   -3.4438  -10.2563  -42.7997 O   0  0  0  0  0  0  0  0  0  0  0  0
   -5.7143  -11.1207  -41.9105 O   0  0  0  0  0  0  0  0  0  0  0  0
   -3.9303  -10.2994  -40.1329 O   0  0  0  0  0  0  0  0  0  0  0  0
    1.8577   -7.3813  -35.7254 O   0  0  0  0  0  0  0  0  0  0  0  0
    0.0265   -0.5122  -35.6365 O   0  0  0  0  0  0  0  0  0  0  0  0
    1.7713   -1.1304  -34.3290 O   0  0  0  0  0  0  0  0  0  0  0  0
   -4.2472  -11.1192  -41.5752 P   0  0  1  0  0  5  0  0  0  0  0  0
  7  8  1  0
  8  9  1  0
  7 10  1  0
 10 11  1  0
  1 12  2  0
  2 12  1  0
  3 13  1  0
  2 13  2  0
 13 14  1  0
  5 15  2  0
  6 16  2  0
  5 16  1  0
  6 17  1  0
 17 18  2  0
 15 18  1  0
  9 19  1  1
 14 19  2  0
  1 19  1  0
  4 20  1  0
  3 20  1  1
 15 21  1  0
  4 21  1  0
  6 22  1  0
  7 23  1  1
  8 24  1  1
 10 25  1  6
  9 25  1  0
 11 26  1  6
  4 30  2  0
 22 31  1  0
 22 32  2  0
 26 33  1  0
 28 33  2  0
 33 27  1  6
 29 33  1  0
M  CHG  3  19   1  22   1  31  -1
M  END
$$$$
