7QF4_RBF_AAA_201
     RDKit          3D

 27 29  0  0  0  0  0  0  0  0999 V2000
   -1.8463   -6.5217  -12.9260 N   0  0  0  0  0  0  0  0  0  0  0  0
   -2.1424   -7.0889  -14.1061 C   0  0  0  0  0  0  0  0  0  0  0  0
   -3.1652   -7.8408  -14.2252 O   0  0  0  0  0  0  0  0  0  0  0  0
   -1.3947   -6.9058  -15.2201 N   0  0  0  0  0  0  0  0  0  0  0  0
   -0.2921   -6.1336  -15.2176 C   0  0  0  0  0  0  0  0  0  0  0  0
    0.4238   -5.9427  -16.2332 O   0  0  0  0  0  0  0  0  0  0  0  0
    0.0372   -5.5361  -14.0145 C   0  0  0  0  0  0  0  0  0  0  0  0
    1.1229   -4.7639  -13.9728 N   0  0  0  0  0  0  0  0  0  0  0  0
    1.4316   -4.1886  -12.7948 C   0  0  0  0  0  0  0  0  0  0  0  0
    2.5712   -3.3874  -12.7734 C   0  0  0  0  0  0  0  0  0  0  0  0
    2.9561   -2.7633  -11.6012 C   0  0  0  0  0  0  0  0  0  0  0  0
    4.1486   -1.9128  -11.5389 C   0  0  0  0  0  0  0  0  0  0  0  0
    2.1951   -2.9549  -10.4834 C   0  0  0  0  0  0  0  0  0  0  0  0
    2.5824   -2.2990   -9.2113 C   0  0  0  0  0  0  0  0  0  0  0  0
    1.0661   -3.7519  -10.5154 C   0  0  0  0  0  0  0  0  0  0  0  0
    0.6734   -4.3715  -11.6559 C   0  0  0  0  0  0  0  0  0  0  0  0
   -0.4349   -5.1377  -11.6267 N   0  0  0  0  0  0  0  0  0  0  0  0
   -0.7604   -5.7282  -12.8156 C   0  0  0  0  0  0  0  0  0  0  0  0
   -1.2570   -5.3566  -10.4890 C   0  0  0  0  0  0  0  0  0  0  0  0
   -2.4463   -4.4282  -10.3677 C   0  0  2  0  0  0  0  0  0  0  0  0
   -2.1854   -3.1090  -10.6054 O   0  0  0  0  0  0  0  0  0  0  0  0
   -2.9748   -4.6421   -8.9511 C   0  0  2  0  0  0  0  0  0  0  0  0
   -1.9397   -4.4466   -8.0461 O   0  0  0  0  0  0  0  0  0  0  0  0
   -3.5768   -6.0229   -8.8052 C   0  0  2  0  0  0  0  0  0  0  0  0
   -4.4720   -6.2312   -9.8529 O   0  0  0  0  0  0  0  0  0  0  0  0
   -4.3471   -6.1711   -7.5158 C   0  0  0  0  0  0  0  0  0  0  0  0
   -5.4268   -5.3091   -7.4152 O   0  0  0  0  0  0  0  0  0  0  0  0
  1  2  1  0
  2  3  2  0
  2  4  1  0
  4  5  1  0
  5  6  2  0
  5  7  1  0
  7  8  2  0
  8  9  1  0
  9 10  1  0
 10 11  2  0
 12 11  1  1
 11 13  1  0
 14 13  1  1
 13 15  2  0
  9 16  2  0
 15 16  1  0
 16 17  1  0
  1 18  2  0
  7 18  1  0
 17 18  1  0
 19 17  1  1
 19 20  1  0
 20 21  1  1
 20 22  1  0
 22 23  1  1
 22 24  1  0
 24 25  1  6
 24 26  1  0
 26 27  1  6
M  END
$$$$
