
     RDKit          3D

 17 16  0  0  0  0  0  0  0  0999 V2000
   25.7848   15.9555  -12.9964 N   0  0  0  0  0  0  0  0  0  0  0  0
   23.4109   17.8114  -11.7974 C   0  0  0  0  0  0  0  0  0  0  0  0
   23.2798   17.8925  -10.2706 C   0  0  2  0  0  0  0  0  0  0  0  0
   22.9937   19.3371   -9.7725 C   0  0  1  0  0  0  0  0  0  0  0  0
   22.6766   20.3186  -10.9152 C   0  0  0  0  0  0  0  0  0  0  0  0
   24.7898   15.6642  -11.9342 C   0  0  2  0  0  0  0  0  0  0  0  0
   24.5939   14.1481  -11.7794 C   0  0  0  0  0  0  0  0  0  0  0  0
   25.1540   13.2805  -12.4299 O   0  0  0  0  0  0  0  0  0  0  0  0
   23.7275   13.8091  -10.7975 O   0  0  0  0  0  0  0  0  0  0  0  0
   23.4703   16.3572  -12.2914 C   0  0  0  0  0  0  0  0  0  0  0  0
   24.5129   17.4317   -9.6975 O   0  0  0  0  0  0  0  0  0  0  0  0
   21.8745   19.3397   -8.8044 N   0  0  0  0  0  0  0  0  0  0  0  0
   23.8831   20.8574  -11.4386 O   0  0  0  0  0  0  0  0  0  0  0  0
   23.8839   21.2823  -13.0027 S   0  0  0  0  0  6  0  0  0  0  0  0
   24.2380   20.1160  -13.7775 O   0  0  0  0  0  0  0  0  0  0  0  0
   24.5697   22.5418  -13.1479 O   0  0  0  0  0  0  0  0  0  0  0  0
   22.3190   21.5270  -13.2871 O   0  0  0  0  0  0  0  0  0  0  0  0
  2  3  1  0
  3  4  1  0
  4  5  1  0
  6  1  1  6
  6  7  1  0
  7  8  2  0
  7  9  1  0
  2 10  1  0
  6 10  1  0
  3 11  1  1
  4 12  1  1
  5 13  1  0
 13 14  1  0
 14 15  2  0
 14 16  2  0
 14 17  1  0
M  END
