1UML_FR4_A_1001
     RDKit          3D

 33 36  0  0  0  0  0  0  0  0999 V2000
   52.0696   55.8092   23.1553 C   0  0  0  0  0  0  0  0  0  0  0  0
   52.4547   56.2648   21.9511 N   0  0  0  0  0  0  0  0  0  0  0  0
   52.6055   55.1578   21.1775 C   0  0  0  0  0  0  0  0  0  0  0  0
   52.3171   54.0533   21.8998 N   0  0  0  0  0  0  0  0  0  0  0  0
   51.9747   54.4335   23.1552 C   0  0  0  0  0  0  0  0  0  0  0  0
   51.5876   53.5787   24.2722 C   0  0  0  0  0  0  0  0  0  0  0  0
   51.3592   54.1379   25.3766 O   0  0  0  0  0  0  0  0  0  0  0  0
   51.4868   52.1747   24.0686 N   0  0  0  0  0  0  0  0  0  0  0  0
   52.6809   57.6247   21.5012 C   0  0  1  0  0  0  0  0  0  0  0  0
   54.1953   57.7530   21.3421 C   0  0  0  0  0  0  0  0  0  0  0  0
   54.7928   57.5485   22.5733 O   0  0  0  0  0  0  0  0  0  0  0  0
   51.9776   57.8861   20.1903 C   0  0  0  0  0  0  0  0  0  0  0  0
   50.4857   57.8599   20.4055 C   0  0  0  0  0  0  0  0  0  0  0  0
   49.8310   58.0135   19.1212 N   0  0  0  0  0  0  0  0  0  0  0  0
   49.6132   59.1276   18.4063 C   0  0  0  0  0  0  0  0  0  0  0  0
   48.9430   58.7928   17.2290 C   0  0  0  0  0  0  0  0  0  0  0  0
   48.7579   57.4153   17.2530 C   0  0  0  0  0  0  0  0  0  0  0  0
   49.3182   56.9765   18.4325 C   0  0  0  0  0  0  0  0  0  0  0  0
   48.1566   56.5591   16.3476 C   0  0  0  0  0  0  0  0  0  0  0  0
   48.1070   55.2069   16.6212 C   0  0  0  0  0  0  0  0  0  0  0  0
   48.6643   54.7439   17.8017 C   0  0  0  0  0  0  0  0  0  0  0  0
   49.2653   55.6163   18.7020 C   0  0  0  0  0  0  0  0  0  0  0  0
   48.6440   53.3552   18.1407 N   0  0  0  0  0  0  0  0  0  0  0  0
   48.5594   52.3791   17.0877 C   0  0  0  0  0  0  0  0  0  0  0  0
   48.8700   52.7117   15.9122 O   0  0  0  0  0  0  0  0  0  0  0  0
   48.1039   50.9832   17.4026 C   0  0  0  0  0  0  0  0  0  0  0  0
   47.7223   50.3486   16.0607 C   0  0  0  0  0  0  0  0  0  0  0  0
   46.6419   48.7471   17.5578 C   0  0  0  0  0  0  0  0  0  0  0  0
   46.9334   49.1217   16.2563 C   0  0  0  0  0  0  0  0  0  0  0  0
   46.4976   48.3686   15.1889 C   0  0  0  0  0  0  0  0  0  0  0  0
   45.7536   47.2143   15.4159 C   0  0  0  0  0  0  0  0  0  0  0  0
   45.4655   46.8449   16.7153 C   0  0  0  0  0  0  0  0  0  0  0  0
   45.9048   47.6042   17.7947 C   0  0  0  0  0  0  0  0  0  0  0  0
  1  2  1  0
  2  3  1  0
  3  4  2  0
  1  5  2  0
  4  5  1  0
  5  6  1  0
  6  7  2  0
  6  8  1  0
  9  2  1  6
  9 10  1  0
 10 11  1  1
  9 12  1  0
 12 13  1  6
 13 14  1  6
 14 15  1  0
 15 16  2  0
 16 17  1  0
 14 18  1  0
 17 18  2  0
 17 19  1  0
 19 20  2  0
 20 21  1  0
 18 22  1  0
 21 22  2  0
 21 23  1  0
 23 24  1  0
 24 25  2  0
 26 24  1  6
 26 27  1  0
 27 29  1  1
 28 29  2  0
 29 30  1  0
 30 31  2  0
 31 32  1  0
 28 33  1  0
 32 33  2  0
M  END
$$$$
