
     RDKit          3D

 26 28  0  0  0  0  0  0  0  0999 V2000
  -19.9664    4.0704  -13.7589 O   0  0  0  0  0  0  0  0  0  0  0  0
  -19.7234    4.0503  -12.5645 C   0  0  0  0  0  0  0  0  0  0  0  0
  -20.7718    3.9229  -11.4943 C   0  0  2  0  0  0  0  0  0  0  0  0
  -21.7848    5.0953  -11.3806 C   0  0  2  0  0  0  0  0  0  0  0  0
  -22.1047    5.0805   -9.8500 C   0  0  2  0  0  0  0  0  0  0  0  0
  -22.8374    3.5433   -9.2582 Cl  0  0  0  0  0  0  0  0  0  0  0  0
  -23.1955    6.4041   -9.2867 Cl  0  0  0  0  0  0  0  0  0  0  0  0
  -23.1766    4.9356  -12.4358 Cl  0  0  0  0  0  0  0  0  0  0  0  0
  -21.0246    6.4037  -11.4432 C   0  0  0  0  0  0  0  0  0  0  0  0
  -21.0978    7.4854  -12.7414 Cl  0  0  0  0  0  0  0  0  0  0  0  0
  -20.2992    6.4966  -10.3216 C   0  0  0  0  0  0  0  0  0  0  0  0
  -19.2018    7.7070   -9.8869 Cl  0  0  0  0  0  0  0  0  0  0  0  0
  -20.5934    5.2662   -9.4839 C   0  0  1  0  0  0  0  0  0  0  0  0
  -20.2559    5.3785   -7.7668 Cl  0  0  0  0  0  0  0  0  0  0  0  0
  -19.9697    4.0248  -10.1685 C   0  0  2  0  0  0  0  0  0  0  0  0
  -18.5414    4.1504  -10.6050 C   0  0  0  0  0  0  0  0  0  0  0  0
  -17.5988    4.2412   -9.8376 O   0  0  0  0  0  0  0  0  0  0  0  0
  -18.4925    4.1309  -11.9720 N   0  0  0  0  0  0  0  0  0  0  0  0
  -17.2409    4.1361  -12.7136 C   0  0  0  0  0  0  0  0  0  0  0  0
  -16.5070    5.4784  -12.6927 C   0  0  0  0  0  0  0  0  0  0  0  0
  -17.2164    6.5606  -13.5080 C   0  0  0  0  0  0  0  0  0  0  0  0
  -16.3470    7.0242  -14.6824 C   0  0  0  0  0  0  0  0  0  0  0  0
  -17.1516    7.7719  -15.7450 C   0  0  0  0  0  0  0  0  0  0  0  0
  -17.9224    8.9303  -15.1732 C   0  0  0  0  0  0  0  0  0  0  0  0
  -17.1618    9.7016  -14.3732 O   0  0  0  0  0  0  0  0  0  0  0  0
  -19.1021    9.1843  -15.3430 O   0  0  0  0  0  0  0  0  0  0  0  0
  1  2  2  0
  3  2  1  6
  3  4  1  0
  4  5  1  0
  5  6  1  1
  5  7  1  0
  4  8  1  6
  4  9  1  0
  9 10  1  0
  9 11  2  0
 11 12  1  0
  5 13  1  0
 11 13  1  0
 13 14  1  1
 13 15  1  0
  3 15  1  0
 15 16  1  6
 16 17  2  0
 16 18  1  0
  2 18  1  0
 18 19  1  0
 19 20  1  0
 20 21  1  0
 21 22  1  0
 22 23  1  0
 23 24  1  0
 24 25  1  0
 24 26  2  0
M  END
