
     RDKit          3D

 29 33  0  0  0  0  0  0  0  0999 V2000
   -3.6716    9.7653    0.0192 C   0  0  0  0  0  0  0  0  0  0  0  0
   -3.7025    8.5836    0.7496 C   0  0  0  0  0  0  0  0  0  0  0  0
   -4.7868    7.7285    0.6298 C   0  0  0  0  0  0  0  0  0  0  0  0
   -5.7923    9.0925   -0.8476 C   0  0  0  0  0  0  0  0  0  0  0  0
   -4.7663   10.0360   -0.8241 C   0  0  0  0  0  0  0  0  0  0  0  0
   -5.1411   11.0841   -1.7279 C   0  0  0  0  0  0  0  0  0  0  0  0
   -5.8687    7.9357   -0.1604 N   0  0  0  0  0  0  0  0  0  0  0  0
   -6.3779   10.7338   -2.2518 C   0  0  0  0  0  0  0  0  0  0  0  0
   -6.7554    9.5343   -1.7099 N   0  0  0  0  0  0  0  0  0  0  0  0
   -4.4288   12.3007   -2.0967 C   0  0  0  0  0  0  0  0  0  0  0  0
   -5.0219   13.1293   -2.9824 N   0  0  0  0  0  0  0  0  0  0  0  0
   -4.3205   14.2292   -3.3148 C   0  0  0  0  0  0  0  0  0  0  0  0
   -3.0774   14.5110   -2.8040 C   0  0  0  0  0  0  0  0  0  0  0  0
   -2.5442   13.6062   -1.8998 C   0  0  0  0  0  0  0  0  0  0  0  0
   -3.2159   12.4959   -1.5450 N   0  0  0  0  0  0  0  0  0  0  0  0
   -1.2906   13.8183   -1.3292 N   0  0  0  0  0  0  0  0  0  0  0  0
   -0.5588   12.7162   -0.6815 C   0  0  2  0  0  0  0  0  0  0  0  0
    0.5204   13.1906    0.3136 C   0  0  2  0  0  0  0  0  0  0  0  0
    1.6726   12.1502    0.3376 C   0  0  2  0  0  0  0  0  0  0  0  0
    2.4131   12.2587   -1.0051 C   0  0  0  0  0  0  0  0  0  0  0  0
    1.4324   12.0193   -2.1609 C   0  0  0  0  0  0  0  0  0  0  0  0
    0.0323   11.6370   -1.6267 C   0  0  1  0  0  0  0  0  0  0  0  0
    0.2357   10.3720   -0.7624 C   0  0  0  0  0  0  0  0  0  0  0  0
    1.1165   10.7122    0.4520 C   0  0  0  0  0  0  0  0  0  0  0  0
   -0.0738   13.4046    1.6880 C   0  0  0  0  0  0  0  0  0  0  0  0
   -0.9331   12.4226    2.0361 O   0  0  0  0  0  0  0  0  0  0  0  0
    0.1114   14.3478    2.4372 O   0  0  0  0  0  0  0  0  0  0  0  0
   -2.4204   15.6242   -3.1610 F   0  0  0  0  0  0  0  0  0  0  0  0
   -2.6850    8.2717    1.5638 F   0  0  0  0  0  0  0  0  0  0  0  0
  1  2  4  0
  2  3  4  0
  4  5  4  0
  1  5  4  0
  5  6  4  0
  4  7  4  0
  3  7  4  0
  6  8  4  0
  4  9  4  0
  8  9  4  0
  6 10  1  0
 10 11  4  0
 11 12  4  0
 12 13  4  0
 13 14  4  0
 10 15  4  0
 14 15  4  0
 14 16  1  0
 17 16  1  6
 17 18  1  0
 18 19  1  0
 19 20  1  6
 20 21  1  0
 17 22  1  0
 22 21  1  1
 22 23  1  0
 23 24  1  0
 19 24  1  0
 18 25  1  1
 25 26  1  0
 25 27  2  0
 13 28  1  0
  2 29  1  0
M  END
