7UMV_NUU_A_501
     RDKit          3D

 22 24  0  0  0  0  0  0  0  0999 V2000
  -34.0017   17.9225    1.5062 C   0  0  0  0  0  0  0  0  0  0  0  0
  -34.0134   18.4735    4.0773 C   0  0  0  0  0  0  0  0  0  0  0  0
  -34.4440   18.4457    6.3931 C   0  0  0  0  0  0  0  0  0  0  0  0
  -32.9557   17.5403    4.2499 C   0  0  0  0  0  0  0  0  0  0  0  0
  -32.1465   17.1951    3.0827 C   0  0  0  0  0  0  0  0  0  0  0  0
  -31.7362   15.5054    5.3295 C   0  0  0  0  0  0  0  0  0  0  0  0
  -30.3841   15.1700    6.0066 C   0  0  1  0  0  0  0  0  0  0  0  0
  -29.8735   16.4494    6.7958 C   0  0  0  0  0  0  0  0  0  0  0  0
  -30.5195   13.9485    7.0013 C   0  0  0  0  0  0  0  0  0  0  0  0
  -29.3274   14.7305    5.0516 C   0  0  0  0  0  0  0  0  0  0  0  0
  -28.3336   15.6061    4.3678 C   0  0  0  0  0  0  0  0  0  0  0  0
  -30.0683   16.4628    2.2349 C   0  0  0  0  0  0  0  0  0  0  0  0
  -31.7181   17.0819    0.6678 C   0  0  0  0  0  0  0  0  0  0  0  0
  -32.6158   17.3973    1.7611 C   0  0  0  0  0  0  0  0  0  0  0  0
  -34.3667   18.9795    2.6343 C   0  0  0  0  0  0  0  0  0  0  0  0
  -33.3782   17.5621    6.6558 C   0  0  0  0  0  0  0  0  0  0  0  0
  -32.5719   17.0872    5.5750 C   0  0  0  0  0  0  0  0  0  0  0  0
  -30.4598   16.6354    0.9668 N   0  0  0  0  0  0  0  0  0  0  0  0
  -34.7596   18.9233    5.1351 N   0  0  0  0  0  0  0  0  0  0  0  0
  -30.8432   16.6907    3.3296 N   0  0  0  0  0  0  0  0  0  0  0  0
  -29.1931   13.4732    4.9231 O   0  0  0  0  0  0  0  0  0  0  0  0
  -28.4654   15.8410    2.6061 S   0  0  0  0  0  0  0  0  0  0  0  0
  2  4  2  0
  4  5  1  0
  7  6  1  6
  7  8  1  0
  7  9  1  0
  7 10  1  0
 10 11  1  0
  1 14  1  0
  5 14  2  0
 13 14  1  0
  2 15  1  0
  1 15  1  0
  3 16  1  0
 16 17  2  0
  4 17  1  0
 13 18  2  0
 12 18  1  0
  3 19  2  0
  2 19  1  0
  5 20  1  0
 12 20  2  0
 10 21  2  0
 12 22  1  0
 11 22  1  0
M  END
