7BCP_GCO_A_401
     RDKit          3D

 13 12  0  0  0  0  0  0  0  0999 V2000
  -12.6667   24.4282    0.2376 C   0  0  0  0  0  0  0  0  0  0  0  0
  -12.7436   25.7400   -0.3973 C   0  0  1  0  0  0  0  0  0  0  0  0
  -12.0413   25.8252   -1.7606 C   0  0  2  0  0  0  0  0  0  0  0  0
  -12.2204   27.1960   -2.2863 C   0  0  1  0  0  0  0  0  0  0  0  0
  -11.5632   27.4635   -3.6064 C   0  0  1  0  0  0  0  0  0  0  0  0
  -11.6744   28.8630   -4.0994 C   0  0  0  0  0  0  0  0  0  0  0  0
  -11.5417   24.1194    0.7774 O   0  0  0  0  0  0  0  0  0  0  0  0
  -13.6500   23.4836    0.3261 O   0  0  0  0  0  0  0  0  0  0  0  0
  -14.1057   26.1006   -0.5869 O   0  0  0  0  0  0  0  0  0  0  0  0
  -12.6992   24.8517   -2.5201 O   0  0  0  0  0  0  0  0  0  0  0  0
  -13.5873   27.4523   -2.3840 O   0  0  0  0  0  0  0  0  0  0  0  0
  -10.2116   27.1385   -3.4989 O   0  0  0  0  0  0  0  0  0  0  0  0
  -11.3159   29.8214   -3.1523 O   0  0  0  0  0  0  0  0  0  0  0  0
  1  2  1  0
  2  3  1  0
  3  4  1  0
  4  5  1  0
  5  6  1  0
  1  7  2  0
  1  8  1  0
  2  9  1  6
  3 10  1  6
  4 11  1  6
  5 12  1  1
  6 13  1  6
M  END
$$$$
