7WJB_BGC_A_802
     RDKit          3D

 24 24  0  0  0  0  0  0  0  0999 V2000
   56.3148   22.7726   15.7103 C   0  0  2  0  0  0  0  0  0  0  0  0
   55.5773   24.1226   15.8722 C   0  0  2  0  0  0  0  0  0  0  0  0
   54.8906   24.5042   14.5550 C   0  0  1  0  0  0  0  0  0  0  0  0
   53.8818   23.3886   14.1465 C   0  0  1  0  0  0  0  0  0  0  0  0
   53.5697   23.4036   12.6396 C   0  0  2  0  0  0  0  0  0  0  0  0
   55.6549   21.8634   14.6398 C   0  0  2  0  0  0  0  0  0  0  0  0
   56.2651   22.0542   13.3882 O   0  0  0  0  0  0  0  0  0  0  0  0
   56.3938   22.1118   16.9494 O   0  0  0  0  0  0  0  0  0  0  0  0
   56.4839   25.1303   16.2389 O   0  0  0  0  0  0  0  0  0  0  0  0
   54.2506   25.7531   14.6631 O   0  0  0  0  0  0  0  0  0  0  0  0
   54.2520   22.0728   14.5608 O   0  0  0  0  0  0  0  0  0  0  0  0
   52.8360   24.5491   12.2968 O   0  0  0  0  0  0  0  0  0  0  0  0
   57.3585   22.9764   15.3821 H   0  0  0  0  0  0  0  0  0  0  0  0
   54.7872   24.0308   16.6555 H   0  0  0  0  0  0  0  0  0  0  0  0
   55.6764   24.5989   13.7727 H   0  0  0  0  0  0  0  0  0  0  0  0
   52.9226   23.6017   14.6679 H   0  0  0  0  0  0  0  0  0  0  0  0
   52.9529   22.5134   12.3927 H   0  0  0  0  0  0  0  0  0  0  0  0
   54.5010   23.3372   12.0333 H   0  0  0  0  0  0  0  0  0  0  0  0
   55.8228   20.8044   14.9431 H   0  0  0  0  0  0  0  0  0  0  0  0
   55.5757   21.8460   12.7049 H   0  0  0  0  0  0  0  0  0  0  0  0
   55.4651   21.9613   17.2680 H   0  0  0  0  0  0  0  0  0  0  0  0
   56.7773   24.9254   17.1651 H   0  0  0  0  0  0  0  0  0  0  0  0
   53.7392   25.7614   15.5141 H   0  0  0  0  0  0  0  0  0  0  0  0
   53.3131   25.3254   12.6905 H   0  0  0  0  0  0  0  0  0  0  0  0
  1  2  1  0
  2  3  1  0
  3  4  1  0
  4  5  1  0
  1  6  1  0
  6  7  1  0
  1  8  1  0
  2  9  1  0
  3 10  1  0
  4 11  1  0
  6 11  1  0
  5 12  1  0
  1 13  1  6
  2 14  1  1
  3 15  1  6
  4 16  1  1
  5 17  1  1
  5 18  1  0
  6 19  1  1
  7 20  1  0
  8 21  1  0
  9 22  1  0
 10 23  1  0
 12 24  1  0
M  END
