7FB7_8NF_A_304
     RDKit          3D

  9  9  0  0  0  0  0  0  0  0999 V2000
   49.0690   16.0543   50.6526 C   0  0  0  0  0  0  0  0  0  0  0  0
   47.9793   15.9140   51.7147 C   0  0  0  0  0  0  0  0  0  0  0  0
   46.8848   15.1253   51.4539 C   0  0  0  0  0  0  0  0  0  0  0  0
   45.9186   15.0194   52.4640 C   0  0  0  0  0  0  0  0  0  0  0  0
   47.1691   16.4091   53.8931 C   0  0  0  0  0  0  0  0  0  0  0  0
   48.1351   16.5357   52.9061 C   0  0  0  0  0  0  0  0  0  0  0  0
   44.6592   14.1637   52.3076 C   0  0  0  0  0  0  0  0  0  0  0  0
   46.0909   15.6407   53.6159 N   0  0  0  0  0  0  0  0  0  0  0  0
   49.2722   17.3680   53.2510 N   0  0  0  0  0  0  0  0  0  0  0  0
  1  2  1  0
  2  3  2  0
  3  4  1  0
  5  6  2  0
  2  6  1  0
  4  7  1  0
  5  8  1  0
  4  8  2  0
  6  9  1  0
M  END
