7JHQ_VAJ_A_301
     RDKit          3D

 28 29  0  0  0  0  0  0  0  0999 V2000
   39.5069  -41.8137   11.2376 C   0  0  0  0  0  0  0  0  0  0  0  0
   39.3817  -40.5883   10.5938 C   0  0  0  0  0  0  0  0  0  0  0  0
   38.8759  -39.4882   11.2616 C   0  0  0  0  0  0  0  0  0  0  0  0
   38.4769  -39.5701   12.5925 C   0  0  0  0  0  0  0  0  0  0  0  0
   37.9125  -38.3932   13.3006 C   0  0  0  0  0  0  0  0  0  0  0  0
   37.9547  -36.0325   13.8190 C   0  0  0  0  0  0  0  0  0  0  0  0
   36.8623  -36.1854   14.6533 C   0  0  0  0  0  0  0  0  0  0  0  0
   35.1325  -37.6077   15.7554 C   0  0  0  0  0  0  0  0  0  0  0  0
   40.0244  -43.0039   10.5092 C   0  0  0  0  0  0  0  0  0  0  0  0
   41.3185  -43.0397   10.3702 O   0  0  0  0  0  0  0  0  0  0  0  0
   36.2830  -37.4359   14.8267 C   0  0  0  0  0  0  0  0  0  0  0  0
   36.8076  -38.5304   14.1441 C   0  0  0  0  0  0  0  0  0  0  0  0
   38.6113  -40.8017   13.2330 C   0  0  0  0  0  0  0  0  0  0  0  0
   39.1182  -41.9049   12.5699 C   0  0  0  0  0  0  0  0  0  0  0  0
   38.4782  -37.1261   13.1496 C   0  0  0  0  0  0  0  0  0  0  0  0
   39.2778  -43.8744   10.0847 O   0  0  0  0  0  0  0  0  0  0  0  0
   34.3388  -36.6998   15.9597 O   0  0  0  0  0  0  0  0  0  0  0  0
   35.0423  -38.7813   16.3207 O   0  0  0  0  0  0  0  0  0  0  0  0
   39.6693  -40.4985    9.6067 H   0  0  0  0  0  0  0  0  0  0  0  0
   38.7927  -38.5884   10.7633 H   0  0  0  0  0  0  0  0  0  0  0  0
   38.3808  -35.1009   13.6948 H   0  0  0  0  0  0  0  0  0  0  0  0
   36.4759  -35.3669   15.1492 H   0  0  0  0  0  0  0  0  0  0  0  0
   36.3726  -39.4586   14.2634 H   0  0  0  0  0  0  0  0  0  0  0  0
   38.3270  -40.8919   14.2209 H   0  0  0  0  0  0  0  0  0  0  0  0
   39.2088  -42.8039   13.0685 H   0  0  0  0  0  0  0  0  0  0  0  0
   39.2960  -37.0029   12.5323 H   0  0  0  0  0  0  0  0  0  0  0  0
   38.3524  -43.8005   10.2114 H   0  0  0  0  0  0  0  0  0  0  0  0
   35.6773  -39.4433   16.1299 H   0  0  0  0  0  0  0  0  0  0  0  0
  1  2  4  0
  2  3  4  0
  3  4  4  0
  4  5  1  0
  6  7  4  0
  1  9  1  0
  9 10  2  0
  7 11  4  0
  8 11  1  0
  5 12  4  0
 11 12  4  0
  4 13  4  0
  1 14  4  0
 13 14  4  0
  5 15  4  0
  6 15  4  0
  9 16  1  0
  8 17  2  0
  8 18  1  0
  2 19  1  0
  3 20  1  0
  6 21  1  0
  7 22  1  0
 12 23  1  0
 13 24  1  0
 14 25  1  0
 15 26  1  0
 16 27  1  0
 18 28  1  0
M  END
