7P2I_MFU_B_101
     RDKit          3D

 26 26  0  0  0  0  0  0  0  0999 V2000
   15.9161   15.8115   50.5283 C   0  0  2  0  0  0  0  0  0  0  0  0
   15.8190   17.0127   49.5737 C   0  0  2  0  0  0  0  0  0  0  0  0
   15.1729   16.5791   48.2448 C   0  0  1  0  0  0  0  0  0  0  0  0
   15.8964   15.3400   47.6836 C   0  0  1  0  0  0  0  0  0  0  0  0
   16.1209   14.2493   48.7630 C   0  0  2  0  0  0  0  0  0  0  0  0
   14.8913   13.3687   49.0559 C   0  0  1  0  0  0  0  0  0  0  0  0
   16.5337   16.2481   51.7246 O   0  0  0  0  0  0  0  0  0  0  0  0
   17.1050   17.5301   49.3408 O   0  0  0  0  0  0  0  0  0  0  0  0
   13.8078   16.3022   48.4301 O   0  0  0  0  0  0  0  0  0  0  0  0
   15.1942   14.8079   46.5891 O   0  0  0  0  0  0  0  0  0  0  0  0
   16.7002   14.7763   49.9498 O   0  0  0  0  0  0  0  0  0  0  0  0
   16.6625   15.1706   52.6272 C   0  0  1  0  0  0  0  0  0  0  0  0
   14.8787   15.4635   50.7458 H   0  0  0  0  0  0  0  0  0  0  0  0
   15.1854   17.7946   50.0549 H   0  0  0  0  0  0  0  0  0  0  0  0
   15.2771   17.4053   47.5022 H   0  0  0  0  0  0  0  0  0  0  0  0
   16.9072   15.6649   47.3393 H   0  0  0  0  0  0  0  0  0  0  0  0
   16.8776   13.5544   48.3369 H   0  0  0  0  0  0  0  0  0  0  0  0
   15.0552   12.8004   49.9959 H   0  0  0  0  0  0  0  0  0  0  0  0
   13.9616   13.9607   49.1587 H   0  0  0  0  0  0  0  0  0  0  0  0
   14.7432   12.6370   48.2335 H   0  0  0  0  0  0  0  0  0  0  0  0
   16.9874   18.3679   48.8213 H   0  0  0  0  0  0  0  0  0  0  0  0
   13.5035   16.8546   49.1970 H   0  0  0  0  0  0  0  0  0  0  0  0
   15.0961   15.5411   45.9268 H   0  0  0  0  0  0  0  0  0  0  0  0
   17.2476   15.5134   53.5050 H   0  0  0  0  0  0  0  0  0  0  0  0
   15.6671   14.8389   52.9966 H   0  0  0  0  0  0  0  0  0  0  0  0
   17.2114   14.3169   52.1713 H   0  0  0  0  0  0  0  0  0  0  0  0
  1  2  1  0
  2  3  1  0
  3  4  1  0
  4  5  1  0
  5  6  1  0
  1  7  1  0
  2  8  1  0
  3  9  1  0
  4 10  1  0
  1 11  1  0
  5 11  1  0
  7 12  1  0
  1 13  1  1
  2 14  1  1
  3 15  1  6
  4 16  1  6
  5 17  1  6
  6 18  1  1
  6 19  1  0
  6 20  1  0
  8 21  1  0
  9 22  1  0
 10 23  1  0
 12 24  1  1
 12 25  1  0
 12 26  1  0
M  END
