1YQY_915_A_782
     RDKit          3D

 42 43  0  0  0  0  0  0  0  0999 V2000
    8.2161   21.4766   27.9025 C   0  0  0  0  0  0  0  0  0  0  0  0
    8.5411   21.8701   29.2076 C   0  0  0  0  0  0  0  0  0  0  0  0
    7.5685   22.4492   30.0391 C   0  0  0  0  0  0  0  0  0  0  0  0
    6.2614   22.6223   29.5547 C   0  0  0  0  0  0  0  0  0  0  0  0
    5.9366   22.2257   28.2544 C   0  0  0  0  0  0  0  0  0  0  0  0
    6.9087   21.6544   27.4298 C   0  0  0  0  0  0  0  0  0  0  0  0
    5.3032   23.1759   30.3408 F   0  0  0  0  0  0  0  0  0  0  0  0
    7.9152   22.8740   31.4367 C   0  0  1  0  0  0  0  0  0  0  0  0
    9.4619   20.7811   26.8676 S   0  0  2  0  0  6  0  0  0  0  0  0
    9.8738   19.1736   27.3985 N   0  0  0  0  0  0  0  0  0  0  0  0
    9.9988   18.2278   26.2743 C   0  0  1  0  0  0  0  0  0  0  0  0
   11.4339   17.7783   26.0845 C   0  0  0  0  0  0  0  0  0  0  0  0
   12.5244   18.5228   26.6385 N   0  0  0  0  0  0  0  0  0  0  0  0
   13.3545   19.2259   25.8315 O   0  0  0  0  0  0  0  0  0  0  0  0
   11.6682   16.7193   25.4420 O   0  0  0  0  0  0  0  0  0  0  0  0
   10.6889   21.6510   26.8678 O   0  0  0  0  0  0  0  0  0  0  0  0
    8.9315   20.7101   25.4635 O   0  0  0  0  0  0  0  0  0  0  0  0
    9.0588   17.0137   26.5012 C   0  0  2  0  0  0  0  0  0  0  0  0
    7.7127   17.4370   27.1387 C   0  0  1  0  0  0  0  0  0  0  0  0
    7.0054   16.2532   27.8234 C   0  0  2  0  0  0  0  0  0  0  0  0
    7.4275   15.0249   27.2668 O   0  0  0  0  0  0  0  0  0  0  0  0
    8.7681   14.7558   27.6452 C   0  0  2  0  0  0  0  0  0  0  0  0
    9.7276   15.9407   27.3833 C   0  0  1  0  0  0  0  0  0  0  0  0
    9.5522   21.7316   29.5705 H   0  0  0  0  0  0  0  0  0  0  0  0
    4.9292   22.3627   27.8831 H   0  0  0  0  0  0  0  0  0  0  0  0
    6.6405   21.3592   26.4242 H   0  0  0  0  0  0  0  0  0  0  0  0
    7.0415   22.7097   32.1026 H   0  0  0  0  0  0  0  0  0  0  0  0
    8.7773   22.2979   31.8363 H   0  0  0  0  0  0  0  0  0  0  0  0
    8.1838   23.9519   31.4455 H   0  0  0  0  0  0  0  0  0  0  0  0
   10.7658   19.2231   27.9412 H   0  0  0  0  0  0  0  0  0  0  0  0
    9.6596   18.7289   25.3396 H   0  0  0  0  0  0  0  0  0  0  0  0
   12.7131   18.5069   27.6651 H   0  0  0  0  0  0  0  0  0  0  0  0
   12.7790   19.5448   25.0905 H   0  0  0  0  0  0  0  0  0  0  0  0
    8.8420   16.5437   25.5151 H   0  0  0  0  0  0  0  0  0  0  0  0
    7.8731   18.2370   27.8947 H   0  0  0  0  0  0  0  0  0  0  0  0
    7.0518   17.8497   26.3449 H   0  0  0  0  0  0  0  0  0  0  0  0
    5.9085   16.3510   27.6790 H   0  0  0  0  0  0  0  0  0  0  0  0
    7.1848   16.2747   28.9237 H   0  0  0  0  0  0  0  0  0  0  0  0
    9.1155   13.8808   27.0558 H   0  0  0  0  0  0  0  0  0  0  0  0
    8.8094   14.4558   28.7161 H   0  0  0  0  0  0  0  0  0  0  0  0
   10.6533   15.5613   26.8984 H   0  0  0  0  0  0  0  0  0  0  0  0
   10.0181   16.3947   28.3569 H   0  0  0  0  0  0  0  0  0  0  0  0
  1  2  2  0
  2  3  1  0
  3  4  2  0
  4  5  1  0
  1  6  1  0
  5  6  2  0
  4  7  1  0
  3  8  1  0
  1  9  1  0
  9 10  1  1
 11 10  1  0
 11 12  1  0
 12 13  1  0
 13 14  1  0
 12 15  2  0
  9 16  2  0
  9 17  2  0
 11 18  1  0
 18 19  1  0
 19 20  1  0
 20 21  1  0
 21 22  1  0
 18 23  1  0
 22 23  1  0
  2 24  1  0
  5 25  1  0
  6 26  1  0
  8 27  1  1
  8 28  1  0
  8 29  1  0
 10 30  1  0
 11 31  1  6
 13 32  1  0
 14 33  1  0
 18 34  1  6
 19 35  1  1
 19 36  1  0
 20 37  1  1
 20 38  1  0
 22 39  1  6
 22 40  1  0
 23 41  1  6
 23 42  1  0
M  END
