7N03_ZRP_A_201
     RDKit          3D

 28 30  0  0  0  0  0  0  0  0999 V2000
  -46.4621   18.4342    9.2808 C   0  0  0  0  0  0  0  0  0  0  0  0
  -47.3636   17.2586    9.2230 C   0  0  0  0  0  0  0  0  0  0  0  0
  -46.7997   15.9631    8.7902 C   0  0  0  0  0  0  0  0  0  0  0  0
  -48.0011   13.0259    5.7811 C   0  0  0  0  0  0  0  0  0  0  0  0
  -48.4559   12.4270    4.6234 C   0  0  0  0  0  0  0  0  0  0  0  0
  -47.6057   11.9227    3.6545 C   0  0  0  0  0  0  0  0  0  0  0  0
  -46.2423   12.0265    3.8615 C   0  0  0  0  0  0  0  0  0  0  0  0
  -45.7769   12.6310    5.0301 C   0  0  0  0  0  0  0  0  0  0  0  0
  -45.3471   11.5308    2.9095 C   0  0  0  0  0  0  0  0  0  0  0  0
  -45.8452   10.9395    1.7662 C   0  0  0  0  0  0  0  0  0  0  0  0
  -47.2069   10.8687    1.6230 C   0  0  0  0  0  0  0  0  0  0  0  0
  -44.8945   10.4368    0.8009 C   0  0  0  0  0  0  0  0  0  0  0  0
  -44.2542    9.5116   -1.4332 C   0  0  0  0  0  0  0  0  0  0  0  0
  -43.4517   15.3209    2.9510 C   0  0  0  0  0  0  0  0  0  0  0  0
  -42.3812   15.5071    3.8075 C   0  0  0  0  0  0  0  0  0  0  0  0
  -41.8343   14.4236    4.4641 C   0  0  0  0  0  0  0  0  0  0  0  0
  -42.3830   13.1728    4.2397 C   0  0  0  0  0  0  0  0  0  0  0  0
  -43.6936   10.3274    1.1539 O   0  0  0  0  0  0  0  0  0  0  0  0
  -45.2397   10.0589   -0.5250 N   0  0  0  0  0  0  0  0  0  0  0  0
  -48.0850   11.3357    2.5197 N   0  0  0  0  0  0  0  0  0  0  0  0
  -43.9750   11.6742    3.1930 N   0  0  0  0  0  0  0  0  0  0  0  0
  -43.4647   12.9914    3.3730 C   0  0  0  0  0  0  0  0  0  0  0  0
  -44.0177   14.0886    2.7087 C   0  0  0  0  0  0  0  0  0  0  0  0
  -46.6398   13.1279    5.9846 C   0  0  0  0  0  0  0  0  0  0  0  0
  -46.1583   13.7474    7.1820 N   0  0  0  0  0  0  0  0  0  0  0  0
  -46.9142   13.4938    8.4036 C   0  0  0  0  0  0  0  0  0  0  0  0
  -47.6710   14.7660    8.8143 C   0  0  0  0  0  0  0  0  0  0  0  0
  -47.0596   19.7278    9.6877 C   0  0  0  0  0  0  0  0  0  0  0  0
  1  2  1  0
  2  3  1  0
  4  5  2  0
  5  6  1  0
  6  7  2  0
  7  8  1  0
  7  9  1  0
  9 10  2  0
 10 11  1  0
 10 12  1  0
 14 15  2  0
 15 16  1  0
 16 17  2  0
 12 18  2  0
 12 19  1  0
 13 19  1  0
  6 20  1  0
 11 20  2  0
  9 21  1  0
 21 22  1  0
 17 22  1  0
 14 23  1  0
 22 23  2  0
  4 24  1  0
  8 24  2  0
 24 25  1  0
 25 26  1  0
 26 27  1  0
  3 27  1  0
  1 28  1  0
M  END
$$$$
