1Q4G_BFL_B_1701
     RDKit          3D

 17 18  0  0  0  0  0  0  0  0999 V2000
   26.7041   53.1219  205.3294 C   0  0  0  0  0  0  0  0  0  0  0  0
   27.6883   54.5030  200.5293 C   0  0  0  0  0  0  0  0  0  0  0  0
   26.9544   55.1108  201.5525 C   0  0  0  0  0  0  0  0  0  0  0  0
   26.8243   54.4963  202.7986 C   0  0  0  0  0  0  0  0  0  0  0  0
   27.1653   50.4004  207.9154 C   0  0  1  0  0  0  0  0  0  0  0  0
   26.6437   51.1819  209.0427 C   0  0  0  0  0  0  0  0  0  0  0  0
   26.2509   49.1837  207.7104 C   0  0  0  0  0  0  0  0  0  0  0  0
   26.6629   52.3963  206.4927 C   0  0  0  0  0  0  0  0  0  0  0  0
   27.2372   51.1460  206.6363 C   0  0  0  0  0  0  0  0  0  0  0  0
   27.8909   50.6084  205.5250 C   0  0  0  0  0  0  0  0  0  0  0  0
   27.9322   51.3419  204.3504 C   0  0  0  0  0  0  0  0  0  0  0  0
   27.3475   52.5853  204.2477 C   0  0  0  0  0  0  0  0  0  0  0  0
   27.4410   53.2936  202.9585 C   0  0  0  0  0  0  0  0  0  0  0  0
   28.1715   52.6797  201.9528 C   0  0  0  0  0  0  0  0  0  0  0  0
   28.3073   53.2719  200.7244 C   0  0  0  0  0  0  0  0  0  0  0  0
   27.5017   51.6203  210.0524 O   0  0  0  0  0  0  0  0  0  0  0  0
   25.4015   51.4803  209.1304 O   0  0  0  0  0  0  0  0  0  0  0  0
  2  3  2  0
  3  4  1  0
  5  6  1  0
  5  7  1  6
  1  8  2  0
  5  9  1  0
  8  9  1  0
  9 10  2  0
 10 11  1  0
  1 12  1  0
 11 12  2  0
  4 13  2  0
 12 13  1  0
 13 14  1  0
  2 15  1  0
 14 15  2  0
  6 16  1  0
  6 17  2  0
M  END
$$$$
