1Q4G_BFL_B_1701
     RDKit          3D

 17 18  0  0  0  0  0  0  0  0999 V2000
   34.1160   32.9866  193.6138 C   0  0  0  0  0  0  0  0  0  0  0  0
   33.4394   38.0168  193.2194 C   0  0  0  0  0  0  0  0  0  0  0  0
   32.9329   37.0670  194.1118 C   0  0  0  0  0  0  0  0  0  0  0  0
   33.3177   35.7285  194.0231 C   0  0  0  0  0  0  0  0  0  0  0  0
   36.0722   30.0227  192.3116 C   0  0  1  0  0  0  0  0  0  0  0  0
   36.9841   29.8465  191.1754 C   0  0  0  0  0  0  0  0  0  0  0  0
   36.8089   29.5957  193.5896 C   0  0  0  0  0  0  0  0  0  0  0  0
   34.5936   31.7173  193.4081 C   0  0  0  0  0  0  0  0  0  0  0  0
   35.5895   31.4118  192.4980 C   0  0  0  0  0  0  0  0  0  0  0  0
   36.1267   32.4665  191.7561 C   0  0  0  0  0  0  0  0  0  0  0  0
   35.6439   33.7483  191.9644 C   0  0  0  0  0  0  0  0  0  0  0  0
   34.6500   34.0116  192.8816 C   0  0  0  0  0  0  0  0  0  0  0  0
   34.1980   35.4060  193.0365 C   0  0  0  0  0  0  0  0  0  0  0  0
   34.7080   36.3372  192.1451 C   0  0  0  0  0  0  0  0  0  0  0  0
   34.3386   37.6548  192.2207 C   0  0  0  0  0  0  0  0  0  0  0  0
   36.5807   29.1183  190.0552 O   0  0  0  0  0  0  0  0  0  0  0  0
   38.1614   30.3501  191.1797 O   0  0  0  0  0  0  0  0  0  0  0  0
  2  3  2  0
  3  4  1  0
  5  6  1  0
  5  7  1  1
  1  8  2  0
  5  9  1  0
  8  9  1  0
  9 10  2  0
 10 11  1  0
  1 12  1  0
 11 12  2  0
  4 13  2  0
 12 13  1  0
 13 14  1  0
  2 15  1  0
 14 15  2  0
  6 16  1  0
  6 17  2  0
M  END
$$$$
