1Q4G_BFL_B_1701
     RDKit          3D

 17 18  0  0  0  0  0  0  0  0999 V2000
   65.5534   19.8047  178.8510 C   0  0  0  0  0  0  0  0  0  0  0  0
   68.2093   21.7334  182.7420 C   0  0  0  0  0  0  0  0  0  0  0  0
   68.6030   21.1574  181.5304 C   0  0  0  0  0  0  0  0  0  0  0  0
   67.6532   20.7480  180.5935 C   0  0  0  0  0  0  0  0  0  0  0  0
   62.0996   19.4267  177.3559 C   0  0  1  0  0  0  0  0  0  0  0  0
   62.4101   19.6116  175.9335 C   0  0  0  0  0  0  0  0  0  0  0  0
   61.7836   17.9421  177.5896 C   0  0  0  0  0  0  0  0  0  0  0  0
   64.5092   19.4660  178.0285 C   0  0  0  0  0  0  0  0  0  0  0  0
   63.1943   19.8172  178.2760 C   0  0  0  0  0  0  0  0  0  0  0  0
   62.9341   20.5573  179.4317 C   0  0  0  0  0  0  0  0  0  0  0  0
   63.9893   20.8991  180.2619 C   0  0  0  0  0  0  0  0  0  0  0  0
   65.2864   20.5300  179.9799 C   0  0  0  0  0  0  0  0  0  0  0  0
   66.3458   20.9377  180.9203 C   0  0  0  0  0  0  0  0  0  0  0  0
   65.9414   21.5074  182.1177 C   0  0  0  0  0  0  0  0  0  0  0  0
   66.8633   21.9138  183.0466 C   0  0  0  0  0  0  0  0  0  0  0  0
   61.8791   20.6950  175.2320 O   0  0  0  0  0  0  0  0  0  0  0  0
   63.1679   18.7939  175.3037 O   0  0  0  0  0  0  0  0  0  0  0  0
  2  3  2  0
  3  4  1  0
  5  6  1  0
  5  7  1  6
  1  8  2  0
  5  9  1  0
  8  9  1  0
  9 10  2  0
 10 11  1  0
  1 12  1  0
 11 12  2  0
  4 13  2  0
 12 13  1  0
 13 14  1  0
  2 15  1  0
 14 15  2  0
  6 16  1  0
  6 17  2  0
M  END
$$$$
