1Q4G_BFL_B_1701
     RDKit          3D

 17 18  0  0  0  0  0  0  0  0999 V2000
   53.3800   11.6866  201.8078 C   0  0  0  0  0  0  0  0  0  0  0  0
   56.5356    8.0171  203.1827 C   0  0  0  0  0  0  0  0  0  0  0  0
   55.7787    8.3317  204.3154 C   0  0  0  0  0  0  0  0  0  0  0  0
   54.8554    9.3778  204.2881 C   0  0  0  0  0  0  0  0  0  0  0  0
   51.0023   14.4237  202.8858 C   0  0  1  0  0  0  0  0  0  0  0  0
   49.6541   14.0921  203.3612 C   0  0  0  0  0  0  0  0  0  0  0  0
   51.5483   15.5696  203.7503 C   0  0  0  0  0  0  0  0  0  0  0  0
   52.4873   12.7280  201.7996 C   0  0  0  0  0  0  0  0  0  0  0  0
   51.9656   13.2986  202.9467 C   0  0  0  0  0  0  0  0  0  0  0  0
   52.3818   12.7725  204.1719 C   0  0  0  0  0  0  0  0  0  0  0  0
   53.2835   11.7207  204.1794 C   0  0  0  0  0  0  0  0  0  0  0  0
   53.7807   11.1797  203.0138 C   0  0  0  0  0  0  0  0  0  0  0  0
   54.7359   10.0620  203.1176 C   0  0  0  0  0  0  0  0  0  0  0  0
   55.4799    9.7609  201.9873 C   0  0  0  0  0  0  0  0  0  0  0  0
   56.3900    8.7364  202.0002 C   0  0  0  0  0  0  0  0  0  0  0  0
   48.8741   13.1613  202.6734 O   0  0  0  0  0  0  0  0  0  0  0  0
   49.1615   14.6407  204.4081 O   0  0  0  0  0  0  0  0  0  0  0  0
  2  3  2  0
  3  4  1  0
  5  6  1  0
  5  7  1  1
  1  8  2  0
  5  9  1  0
  8  9  1  0
  9 10  2  0
 10 11  1  0
  1 12  1  0
 11 12  2  0
  4 13  2  0
 12 13  1  0
 13 14  1  0
  2 15  1  0
 14 15  2  0
  6 16  1  0
  6 17  2  0
M  END
$$$$
