1Q4G_BFL_B_1701
     RDKit          3D

 17 18  0  0  0  0  0  0  0  0999 V2000
   45.6371   36.4810  182.0685 C   0  0  0  0  0  0  0  0  0  0  0  0
   44.0077   40.1352  185.2159 C   0  0  0  0  0  0  0  0  0  0  0  0
   44.0151   38.7408  185.3192 C   0  0  0  0  0  0  0  0  0  0  0  0
   44.4843   37.9504  184.2692 C   0  0  0  0  0  0  0  0  0  0  0  0
   46.9217   35.7511  178.5865 C   0  0  1  0  0  0  0  0  0  0  0  0
   46.7564   36.4591  177.3117 C   0  0  0  0  0  0  0  0  0  0  0  0
   48.4200   35.4905  178.8005 C   0  0  0  0  0  0  0  0  0  0  0  0
   46.1149   35.8411  180.9532 C   0  0  0  0  0  0  0  0  0  0  0  0
   46.4071   36.4875  179.7656 C   0  0  0  0  0  0  0  0  0  0  0  0
   46.1980   37.8678  179.7176 C   0  0  0  0  0  0  0  0  0  0  0  0
   45.7155   38.5134  180.8445 C   0  0  0  0  0  0  0  0  0  0  0  0
   45.4366   37.8331  182.0097 C   0  0  0  0  0  0  0  0  0  0  0  0
   44.9263   38.6020  183.1591 C   0  0  0  0  0  0  0  0  0  0  0  0
   44.9246   39.9835  183.0432 C   0  0  0  0  0  0  0  0  0  0  0  0
   44.4666   40.7717  184.0665 C   0  0  0  0  0  0  0  0  0  0  0  0
   45.7633   36.0677  176.4126 O   0  0  0  0  0  0  0  0  0  0  0  0
   47.5095   37.4442  176.9924 O   0  0  0  0  0  0  0  0  0  0  0  0
  2  3  2  0
  3  4  1  0
  5  6  1  0
  5  7  1  1
  1  8  2  0
  5  9  1  0
  8  9  1  0
  9 10  2  0
 10 11  1  0
  1 12  1  0
 11 12  2  0
  4 13  2  0
 12 13  1  0
 13 14  1  0
  2 15  1  0
 14 15  2  0
  6 16  1  0
  6 17  2  0
M  END
$$$$
