1Q4G_BFL_B_1701
     RDKit          3D

 17 18  0  0  0  0  0  0  0  0999 V2000
   69.2655   14.2862  207.9614 C   0  0  0  0  0  0  0  0  0  0  0  0
   71.6056   10.0754  206.3152 C   0  0  0  0  0  0  0  0  0  0  0  0
   71.6687   10.7774  207.5228 C   0  0  0  0  0  0  0  0  0  0  0  0
   70.9080   11.9310  207.7176 C   0  0  0  0  0  0  0  0  0  0  0  0
   66.8154   17.0170  207.0412 C   0  0  1  0  0  0  0  0  0  0  0  0
   66.9050   17.9103  205.8802 C   0  0  0  0  0  0  0  0  0  0  0  0
   65.3548   16.5659  207.1886 C   0  0  0  0  0  0  0  0  0  0  0  0
   68.4628   15.3978  208.0026 C   0  0  0  0  0  0  0  0  0  0  0  0
   67.6663   15.8068  206.9482 C   0  0  0  0  0  0  0  0  0  0  0  0
   67.6935   15.0333  205.7853 C   0  0  0  0  0  0  0  0  0  0  0  0
   68.5044   13.9107  205.7445 C   0  0  0  0  0  0  0  0  0  0  0  0
   69.2837   13.5362  206.8173 C   0  0  0  0  0  0  0  0  0  0  0  0
   70.1157   12.3268  206.6842 C   0  0  0  0  0  0  0  0  0  0  0  0
   70.0435   11.6405  205.4818 C   0  0  0  0  0  0  0  0  0  0  0  0
   70.7850   10.5064  205.2770 C   0  0  0  0  0  0  0  0  0  0  0  0
   67.3569   19.2217  206.0342 O   0  0  0  0  0  0  0  0  0  0  0  0
   66.5754   17.5161  204.7074 O   0  0  0  0  0  0  0  0  0  0  0  0
  2  3  2  0
  3  4  1  0
  5  6  1  0
  5  7  1  6
  1  8  2  0
  5  9  1  0
  8  9  1  0
  9 10  2  0
 10 11  1  0
  1 12  1  0
 11 12  2  0
  4 13  2  0
 12 13  1  0
 13 14  1  0
  2 15  1  0
 14 15  2  0
  6 16  1  0
  6 17  2  0
M  END
$$$$
