1Q4G_BFL_B_1701
     RDKit          3D

 17 18  0  0  0  0  0  0  0  0999 V2000
   43.5039   56.4638  213.2136 C   0  0  0  0  0  0  0  0  0  0  0  0
   43.3336   61.4697  212.3051 C   0  0  0  0  0  0  0  0  0  0  0  0
   44.3448   60.6387  212.7969 C   0  0  0  0  0  0  0  0  0  0  0  0
   44.1111   59.2792  213.0076 C   0  0  0  0  0  0  0  0  0  0  0  0
   41.4497   53.2966  213.4500 C   0  0  1  0  0  0  0  0  0  0  0  0
   40.4574   53.0620  214.5055 C   0  0  0  0  0  0  0  0  0  0  0  0
   40.8780   52.7668  212.1268 C   0  0  0  0  0  0  0  0  0  0  0  0
   43.1210   55.1574  213.3809 C   0  0  0  0  0  0  0  0  0  0  0  0
   41.8140   54.7208  213.2594 C   0  0  0  0  0  0  0  0  0  0  0  0
   40.8440   55.6769  212.9492 C   0  0  0  0  0  0  0  0  0  0  0  0
   41.2316   56.9963  212.7803 C   0  0  0  0  0  0  0  0  0  0  0  0
   42.5452   57.3913  212.9096 C   0  0  0  0  0  0  0  0  0  0  0  0
   42.8656   58.8165  212.7126 C   0  0  0  0  0  0  0  0  0  0  0  0
   41.8539   59.6290  212.2246 C   0  0  0  0  0  0  0  0  0  0  0  0
   42.0697   60.9657  212.0131 C   0  0  0  0  0  0  0  0  0  0  0  0
   40.8690   52.7978  215.8127 O   0  0  0  0  0  0  0  0  0  0  0  0
   39.2011   53.0931  214.2598 O   0  0  0  0  0  0  0  0  0  0  0  0
  2  3  2  0
  3  4  1  0
  5  6  1  0
  5  7  1  6
  1  8  2  0
  5  9  1  0
  8  9  1  0
  9 10  2  0
 10 11  1  0
  1 12  1  0
 11 12  2  0
  4 13  2  0
 12 13  1  0
 13 14  1  0
  2 15  1  0
 14 15  2  0
  6 16  1  0
  6 17  2  0
M  END
$$$$
