1OWE_675_A_1001
     RDKit          3D

 22 24  0  0  0  0  0  0  0  0999 V2000
   15.3256   19.4722   32.1469 N   0  0  0  0  0  0  0  0  0  0  0  0
   15.6214   18.1556   32.3258 C   0  0  0  0  0  0  0  0  0  0  0  0
   14.6940   17.1779   32.5651 N   0  0  0  0  0  0  0  0  0  0  0  0
   17.0803   17.8284   32.2739 C   0  0  0  0  0  0  0  0  0  0  0  0
   18.1423   18.8057   32.2836 C   0  0  0  0  0  0  0  0  0  0  0  0
   19.5375   18.5537   32.1657 C   0  0  0  0  0  0  0  0  0  0  0  0
   19.9307   17.1977   32.0650 C   0  0  0  0  0  0  0  0  0  0  0  0
   21.2727   16.8381   32.0422 C   0  0  0  0  0  0  0  0  0  0  0  0
   21.7345   15.4730   32.0475 C   0  0  0  0  0  0  0  0  0  0  0  0
   20.6009   14.5327   32.0964 C   0  0  0  0  0  0  0  0  0  0  0  0
   19.2531   14.8212   32.1353 C   0  0  0  0  0  0  0  0  0  0  0  0
   18.9320   16.1467   32.1096 C   0  0  0  0  0  0  0  0  0  0  0  0
   17.6094   16.4928   32.2080 C   0  0  0  0  0  0  0  0  0  0  0  0
   23.1269   15.0472   32.0229 C   0  0  0  0  0  0  0  0  0  0  0  0
   23.3620   13.9220   31.5980 O   0  0  0  0  0  0  0  0  0  0  0  0
   24.0082   15.8627   32.6863 N   0  0  0  0  0  0  0  0  0  0  0  0
   25.3482   15.5599   32.8002 C   0  0  0  0  0  0  0  0  0  0  0  0
   25.7293   15.3315   34.1264 C   0  0  0  0  0  0  0  0  0  0  0  0
   27.0713   15.0942   34.4252 C   0  0  0  0  0  0  0  0  0  0  0  0
   28.0020   15.0199   33.3424 C   0  0  0  0  0  0  0  0  0  0  0  0
   27.6242   15.1506   32.0082 C   0  0  0  0  0  0  0  0  0  0  0  0
   26.2741   15.4180   31.7304 C   0  0  0  0  0  0  0  0  0  0  0  0
  1  2  2  0
  2  3  1  0
  2  4  1  0
  4  5  2  0
  5  6  1  0
  6  7  2  0
  7  8  1  0
  8  9  2  0
  9 10  1  0
 10 11  2  0
  7 12  1  0
 11 12  1  0
  4 13  1  0
 12 13  2  0
  9 14  1  0
 14 15  2  0
 14 16  1  0
 16 17  1  0
 17 18  2  0
 18 19  1  0
 19 20  2  0
 20 21  1  0
 17 22  1  0
 21 22  2  0
M  END
