1OWE_675_A_1001
     RDKit          3D

 22 24  0  0  0  0  0  0  0  0999 V2000
   15.3158   19.4651   32.4603 N   0  0  0  0  0  0  0  0  0  0  0  0
   15.6222   18.1485   32.6199 C   0  0  0  0  0  0  0  0  0  0  0  0
   14.7098   17.1689   32.9050 N   0  0  0  0  0  0  0  0  0  0  0  0
   17.0767   17.8234   32.4904 C   0  0  0  0  0  0  0  0  0  0  0  0
   18.1365   18.8020   32.4467 C   0  0  0  0  0  0  0  0  0  0  0  0
   19.5239   18.5523   32.2550 C   0  0  0  0  0  0  0  0  0  0  0  0
   19.9129   17.1970   32.1301 C   0  0  0  0  0  0  0  0  0  0  0  0
   21.2523   16.8392   32.0357 C   0  0  0  0  0  0  0  0  0  0  0  0
   21.7154   15.4748   32.0131 C   0  0  0  0  0  0  0  0  0  0  0  0
   20.5870   14.5328   32.1191 C   0  0  0  0  0  0  0  0  0  0  0  0
   19.2428   14.8195   32.2296 C   0  0  0  0  0  0  0  0  0  0  0  0
   18.9192   16.1445   32.2244 C   0  0  0  0  0  0  0  0  0  0  0  0
   17.6032   16.4887   32.3931 C   0  0  0  0  0  0  0  0  0  0  0  0
   23.1050   15.0510   31.9141 C   0  0  0  0  0  0  0  0  0  0  0  0
   23.3188   13.9271   31.4743 O   0  0  0  0  0  0  0  0  0  0  0  0
   24.0190   15.8659   32.5323 N   0  0  0  0  0  0  0  0  0  0  0  0
   25.3636   15.5646   32.5748 C   0  0  0  0  0  0  0  0  0  0  0  0
   25.8142   15.3332   33.8784 C   0  0  0  0  0  0  0  0  0  0  0  0
   27.1703   15.0969   34.1055 C   0  0  0  0  0  0  0  0  0  0  0  0
   28.0429   15.0267   32.9750 C   0  0  0  0  0  0  0  0  0  0  0  0
   27.5952   15.1604   31.6629 C   0  0  0  0  0  0  0  0  0  0  0  0
   26.2320   15.4267   31.4573 C   0  0  0  0  0  0  0  0  0  0  0  0
  1  2  2  0
  2  3  1  0
  2  4  1  0
  4  5  2  0
  5  6  1  0
  6  7  2  0
  7  8  1  0
  8  9  2  0
  9 10  1  0
 10 11  2  0
  7 12  1  0
 11 12  1  0
  4 13  1  0
 12 13  2  0
  9 14  1  0
 14 15  2  0
 14 16  1  0
 16 17  1  0
 17 18  2  0
 18 19  1  0
 19 20  2  0
 20 21  1  0
 17 22  1  0
 21 22  2  0
M  END
