7WDT_NGS_A_901
     RDKit          3D

 19 19  0  0  0  0  0  0  0  0999 V2000
   26.0078   -4.6308   -3.2909 C   0  0  2  0  0  0  0  0  0  0  0  0
   25.8563   -6.1484   -3.3627 C   0  0  1  0  0  0  0  0  0  0  0  0
   24.7213   -6.5897   -2.4455 C   0  0  2  0  0  0  0  0  0  0  0  0
   24.4285   -5.5641   -1.3618 C   0  0  1  0  0  0  0  0  0  0  0  0
   24.0078   -4.2326   -1.9787 C   0  0  1  0  0  0  0  0  0  0  0  0
   23.7998   -3.1602   -0.9467 C   0  0  0  0  0  0  0  0  0  0  0  0
   26.8772   -4.5004   -2.2073 O   0  0  0  0  0  0  0  0  0  0  0  0
   25.1248   -7.8175   -1.8558 O   0  0  0  0  0  0  0  0  0  0  0  0
   24.9865   -3.7218   -2.9015 O   0  0  0  0  0  0  0  0  0  0  0  0
   23.3645   -1.9988   -1.6273 O   0  0  0  0  0  0  0  0  0  0  0  0
   25.6710   -6.7091   -4.6816 N   0  0  0  0  0  0  0  0  0  0  0  0
   25.3892   -5.8999   -5.7184 C   0  0  0  0  0  0  0  0  0  0  0  0
   24.8865   -4.7859   -5.5449 O   0  0  0  0  0  0  0  0  0  0  0  0
   25.7685   -6.4028   -7.0829 C   0  0  0  0  0  0  0  0  0  0  0  0
   24.2797   -0.7353   -1.5188 S   0  0  2  0  0  0  0  0  0  0  0  0
   23.9163   -0.1076   -0.2811 O   0  0  0  0  0  0  0  0  0  0  0  0
   24.0308    0.0312   -2.6917 O   0  0  0  0  0  0  0  0  0  0  0  0
   25.6130   -1.2455   -1.4988 O   0  0  0  0  0  0  0  0  0  0  0  0
   23.3836   -6.0626   -0.5345 O   0  0  0  0  0  0  0  0  0  0  0  0
  1  2  1  0
  2  3  1  0
  3  4  1  0
  4  5  1  0
  5  6  1  1
  1  7  1  1
  3  8  1  1
  1  9  1  0
  5  9  1  0
  6 10  1  0
  2 11  1  6
 11 12  1  0
 12 13  2  0
 12 14  1  0
 10 15  1  0
 15 16  2  0
 15 17  1  6
 15 18  2  0
  4 19  1  1
M  END
