1JJE_BYS_A_250
     RDKit          3D

 25 27  0  0  0  0  0  0  0  0999 V2000
   57.4160   25.1030   33.0280 C   0  0  1  0  0  0  0  0  0  0  0  0
   57.9150   26.3470   32.3210 C   0  0  0  0  0  0  0  0  0  0  0  0
   57.0850   27.1160   31.7890 O   0  0  0  0  0  0  0  0  0  0  0  0
   59.1230   26.6600   32.2440 O   0  0  0  0  0  0  0  0  0  0  0  0
   58.1130   23.8370   32.4910 C   0  0  0  0  0  0  0  0  0  0  0  0
   58.0040   23.7750   30.9750 C   0  0  0  0  0  0  0  0  0  0  0  0
   59.0930   24.1020   30.1700 C   0  0  0  0  0  0  0  0  0  0  0  0
   59.0050   24.0770   28.7710 C   0  0  0  0  0  0  0  0  0  0  0  0
   57.8070   23.6650   28.1580 C   0  0  0  0  0  0  0  0  0  0  0  0
   56.7110   23.3550   28.9530 C   0  0  0  0  0  0  0  0  0  0  0  0
   56.8170   23.3670   30.3540 C   0  0  0  0  0  0  0  0  0  0  0  0
   57.6370   25.1710   34.5470 C   0  0  1  0  0  0  0  0  0  0  0  0
   57.5140   26.5790   35.0580 C   0  0  0  0  0  0  0  0  0  0  0  0
   56.6730   27.3870   34.6000 O   0  0  0  0  0  0  0  0  0  0  0  0
   58.2960   26.9840   35.9560 O   0  0  0  0  0  0  0  0  0  0  0  0
   56.6260   24.2210   35.2430 C   0  0  0  0  0  0  0  0  0  0  0  0
   57.0770   24.1100   36.6850 C   0  0  0  0  0  0  0  0  0  0  0  0
   56.4830   24.8980   37.7000 C   0  0  0  0  0  0  0  0  0  0  0  0
   56.9680   24.6860   38.9890 C   0  0  0  0  0  0  0  0  0  0  0  0
   56.6450   25.3320   40.1140 O   0  0  0  0  0  0  0  0  0  0  0  0
   57.4370   24.7990   41.1870 C   0  0  0  0  0  0  0  0  0  0  0  0
   58.2800   23.8030   40.5730 O   0  0  0  0  0  0  0  0  0  0  0  0
   57.9960   23.7970   39.2640 C   0  0  0  0  0  0  0  0  0  0  0  0
   58.6040   23.0440   38.2630 C   0  0  0  0  0  0  0  0  0  0  0  0
   58.0950   23.2020   36.9550 C   0  0  0  0  0  0  0  0  0  0  0  0
  1  2  1  0
  2  3  2  0
  2  4  1  0
  1  5  1  6
  5  6  1  0
  6  7  2  0
  7  8  1  0
  8  9  2  0
  9 10  1  0
  6 11  1  0
 10 11  2  0
  1 12  1  0
 12 13  1  0
 13 14  2  0
 13 15  1  0
 12 16  1  1
 16 17  1  0
 17 18  2  0
 18 19  1  0
 19 20  1  0
 20 21  1  0
 21 22  1  0
 19 23  2  0
 22 23  1  0
 23 24  1  0
 17 25  1  0
 24 25  2  0
M  END
$$$$
