@<TRIPOS>MOLECULE
1JJE_BYS_A_250
 43 45 0 0 0
SMALL
GASTEIGER

@<TRIPOS>ATOM
      1 C          57.4160   25.1030   33.0280 C.3     1  UNL1        0.0734
      2 C          57.9150   26.3470   32.3210 C.2     1  UNL1        0.3089
      3 O          57.0850   27.1160   31.7890 O.2     1  UNL1       -0.2507
      4 O          59.1230   26.6600   32.2440 O.3     1  UNL1       -0.4804
      5 C          58.1130   23.8370   32.4910 C.3     1  UNL1       -0.0140
      6 C          58.0040   23.7750   30.9750 C.ar    1  UNL1       -0.0466
      7 C          59.0930   24.1020   30.1700 C.ar    1  UNL1       -0.0586
      8 C          59.0050   24.0770   28.7710 C.ar    1  UNL1       -0.0615
      9 C          57.8070   23.6650   28.1580 C.ar    1  UNL1       -0.0617
     10 C          56.7110   23.3550   28.9530 C.ar    1  UNL1       -0.0615
     11 C          56.8170   23.3670   30.3540 C.ar    1  UNL1       -0.0586
     12 C          57.6370   25.1710   34.5470 C.3     1  UNL1        0.0734
     13 C          57.5140   26.5790   35.0580 C.2     1  UNL1        0.3089
     14 O          56.6730   27.3870   34.6000 O.2     1  UNL1       -0.2507
     15 O          58.2960   26.9840   35.9560 O.3     1  UNL1       -0.4804
     16 C          56.6260   24.2210   35.2430 C.3     1  UNL1       -0.0138
     17 C          57.0770   24.1100   36.6850 C.ar    1  UNL1       -0.0429
     18 C          56.4830   24.8980   37.7000 C.ar    1  UNL1       -0.0129
     19 C          56.9680   24.6860   38.9890 C.ar    1  UNL1        0.1665
     20 O          56.6450   25.3320   40.1140 O.3     1  UNL1       -0.4526
     21 C          57.4370   24.7990   41.1870 C.3     1  UNL1        0.2332
     22 O          58.2800   23.8030   40.5730 O.3     1  UNL1       -0.4526
     23 C          57.9960   23.7970   39.2640 C.ar    1  UNL1        0.1662
     24 C          58.6040   23.0440   38.2630 C.ar    1  UNL1       -0.0159
     25 C          58.0950   23.2020   36.9550 C.ar    1  UNL1       -0.0549
     26 H          56.3655   25.0530   32.8307 H       1  UNL1        0.0425
     27 H          59.7752   26.1092   32.6303 H       1  UNL1        0.2951
     28 H          57.6469   22.9716   32.9138 H       1  UNL1        0.0321
     29 H          59.1472   23.8676   32.7639 H       1  UNL1        0.0321
     30 H          59.9856   24.3689   30.6140 H       1  UNL1        0.0620
     31 H          59.8133   24.3588   28.1946 H       1  UNL1        0.0618
     32 H          57.7436   23.5941   27.1304 H       1  UNL1        0.0618
     33 H          55.8105   23.1136   28.5105 H       1  UNL1        0.0618
     34 H          56.0132   23.0726   30.9304 H       1  UNL1        0.0620
     35 H          58.6329   24.8525   34.7743 H       1  UNL1        0.0425
     36 H          58.9355   26.4024   36.3176 H       1  UNL1        0.2951
     37 H          56.6381   23.2588   34.7751 H       1  UNL1        0.0321
     38 H          55.6263   24.5962   35.1741 H       1  UNL1        0.0321
     39 H          55.7394   25.5846   37.4985 H       1  UNL1        0.0658
     40 H          56.8103   24.3537   41.9312 H       1  UNL1        0.1166
     41 H          58.0074   25.5584   41.6798 H       1  UNL1        0.1166
     42 H          59.3868   22.4030   38.4664 H       1  UNL1        0.0655
     43 H          58.4852   22.6340   36.1867 H       1  UNL1        0.0621
@<TRIPOS>BOND
     1     1     2    1
     2     2     3    2
     3     2     4    1
     4     1     5    1
     5     5     6    1
     6     6     7   ar
     7     7     8   ar
     8     8     9   ar
     9     9    10   ar
    10     6    11   ar
    11    10    11   ar
    12     1    12    1
    13    12    13    1
    14    13    14    2
    15    13    15    1
    16    12    16    1
    17    16    17    1
    18    17    18   ar
    19    18    19   ar
    20    19    20    1
    21    20    21    1
    22    21    22    1
    23    19    23   ar
    24    22    23    1
    25    23    24   ar
    26    17    25   ar
    27    24    25   ar
    28     1    26    1
    29     4    27    1
    30     5    28    1
    31     5    29    1
    32     7    30    1
    33     8    31    1
    34     9    32    1
    35    10    33    1
    36    11    34    1
    37    12    35    1
    38    15    36    1
    39    16    37    1
    40    16    38    1
    41    18    39    1
    42    21    40    1
    43    21    41    1
    44    24    42    1
    45    25    43    1
