1V48_HA1_A_290
     RDKit          3D

 36 37  0  0  0  0  0  0  0  0999 V2000
    0.2939    1.4385   -0.5674 N   0  0  0  0  0  0  0  0  0  0  0  0
   -0.5621    2.3121    0.0225 C   0  0  0  0  0  0  0  0  0  0  0  0
   -0.3219    2.4882    1.3518 N   0  0  0  0  0  0  0  0  0  0  0  0
    0.7289    1.6752    1.5722 C   0  0  0  0  0  0  0  0  0  0  0  0
    1.4021    1.4056    2.7544 C   0  0  0  0  0  0  0  0  0  0  0  0
    1.0794    1.9722    3.8324 O   0  0  0  0  0  0  0  0  0  0  0  0
    2.4271    0.4999    2.7161 N   0  0  0  0  0  0  0  0  0  0  0  0
    2.7756   -0.1303    1.5430 C   0  0  0  0  0  0  0  0  0  0  0  0
    3.8428   -1.0780    1.5274 N   0  0  0  0  0  0  0  0  0  0  0  0
    2.0996    0.1435    0.3850 N   0  0  0  0  0  0  0  0  0  0  0  0
    1.0933    1.0487    0.4324 C   0  0  0  0  0  0  0  0  0  0  0  0
    0.2629    0.9555   -1.9474 C   0  0  0  0  0  0  0  0  0  0  0  0
   -0.8261   -0.1087   -2.1308 C   0  0  0  0  0  0  0  0  0  0  0  0
   -0.5157   -1.3898   -1.3404 C   0  0  0  0  0  0  0  0  0  0  0  0
   -1.4752   -2.5547   -1.6527 C   0  0  0  0  0  0  0  0  0  0  0  0
   -2.9600   -2.3412   -1.2900 C   0  0  0  0  0  0  0  0  0  0  0  0
   -3.6391   -3.5150   -1.5627 F   0  0  0  0  0  0  0  0  0  0  0  0
   -3.5139   -1.3446   -2.0718 F   0  0  0  0  0  0  0  0  0  0  0  0
   -3.2221   -1.9422    0.4754 P   0  0  0  0  0  5  0  0  0  0  0  0
   -2.3885   -3.0474    1.4506 O   0  0  0  0  0  0  0  0  0  0  0  0
   -2.7504   -0.5367    0.7765 O   0  0  0  0  0  0  0  0  0  0  0  0
   -4.8749   -2.0511    0.8219 O   0  0  0  0  0  0  0  0  0  0  0  0
   -1.3679    2.8073   -0.5038 H   0  0  0  0  0  0  0  0  0  0  0  0
    2.9493    0.2808    3.5947 H   0  0  0  0  0  0  0  0  0  0  0  0
    4.1068   -1.5594    0.6393 H   0  0  0  0  0  0  0  0  0  0  0  0
    4.3702   -1.3020    2.4002 H   0  0  0  0  0  0  0  0  0  0  0  0
    1.2555    0.5441   -2.2339 H   0  0  0  0  0  0  0  0  0  0  0  0
    0.0500    1.8098   -2.6258 H   0  0  0  0  0  0  0  0  0  0  0  0
   -0.9033   -0.3528   -3.2125 H   0  0  0  0  0  0  0  0  0  0  0  0
   -1.7935    0.3223   -1.7995 H   0  0  0  0  0  0  0  0  0  0  0  0
    0.5112   -1.7266   -1.6029 H   0  0  0  0  0  0  0  0  0  0  0  0
   -0.5107   -1.1800   -0.2526 H   0  0  0  0  0  0  0  0  0  0  0  0
   -1.1088   -3.4539   -1.1111 H   0  0  0  0  0  0  0  0  0  0  0  0
   -1.4078   -2.7900   -2.7373 H   0  0  0  0  0  0  0  0  0  0  0  0
   -1.4400   -2.7662    1.4096 H   0  0  0  0  0  0  0  0  0  0  0  0
   -5.3038   -1.3831    0.2294 H   0  0  0  0  0  0  0  0  0  0  0  0
  1  2  1  0
  2  3  2  0
  3  4  1  0
  4  5  1  0
  5  6  2  0
  5  7  1  0
  7  8  1  0
  8  9  1  0
  8 10  2  0
  1 11  1  0
  4 11  2  0
 10 11  1  0
  1 12  1  0
 12 13  1  0
 13 14  1  0
 14 15  1  0
 15 16  1  0
 16 17  1  0
 16 18  1  0
 16 19  1  0
 19 20  1  0
 19 21  2  0
 19 22  1  0
  2 23  1  0
  7 24  1  0
  9 25  1  0
  9 26  1  0
 12 27  1  0
 12 28  1  0
 13 29  1  0
 13 30  1  0
 14 31  1  0
 14 32  1  0
 15 33  1  0
 15 34  1  0
 20 35  1  0
 22 36  1  0
M  END
