7XJN_NSD_A_401
     RDKit          3D

 26 25  0  0  0  0  0  0  0  0999 V2000
   -7.7755   -5.7405   -1.4600 C   0  0  0  0  0  0  0  0  0  0  0  0
   -7.7723   -4.7381   -2.5220 N   0  0  0  0  0  0  0  0  0  0  0  0
   -8.8314   -6.8231   -1.7258 C   0  0  0  0  0  0  0  0  0  0  0  0
   -7.1903   -7.3475   -3.5202 N   0  0  0  0  0  0  0  0  0  0  0  0
   -8.4717   -7.7343   -2.9104 C   0  0  0  0  0  0  0  0  0  0  0  0
   -7.7054   -6.9278   -0.1463 N   0  0  0  0  0  0  0  0  0  0  0  0
   -6.3427   -6.6092   -2.5748 C   0  0  0  0  0  0  0  0  0  0  0  0
   -7.1149   -5.4134   -2.0122 C   0  0  0  0  0  0  0  0  0  0  0  0
   -8.1983   -5.8683   -1.0237 C   0  0  0  0  0  0  0  0  0  0  0  0
   -7.9773   -5.2490   -0.4831 H   0  0  0  0  0  0  0  0  0  0  0  0
   -6.7725   -6.2190   -1.3996 H   0  0  0  0  0  0  0  0  0  0  0  0
   -7.4193   -5.1888   -3.3977 H   0  0  0  0  0  0  0  0  0  0  0  0
   -7.0753   -4.0027   -2.2637 H   0  0  0  0  0  0  0  0  0  0  0  0
   -9.0008   -7.4221   -0.8061 H   0  0  0  0  0  0  0  0  0  0  0  0
   -9.7921   -6.3170   -1.9633 H   0  0  0  0  0  0  0  0  0  0  0  0
   -6.6833   -8.2271   -3.7783 H   0  0  0  0  0  0  0  0  0  0  0  0
   -8.4537   -8.7956   -2.5728 H   0  0  0  0  0  0  0  0  0  0  0  0
   -9.2807   -7.6576   -3.6711 H   0  0  0  0  0  0  0  0  0  0  0  0
   -6.8702   -6.5738    0.3747 H   0  0  0  0  0  0  0  0  0  0  0  0
   -7.3952   -7.7360   -0.7336 H   0  0  0  0  0  0  0  0  0  0  0  0
   -5.4220   -6.2491   -3.0882 H   0  0  0  0  0  0  0  0  0  0  0  0
   -6.0442   -7.2662   -1.7292 H   0  0  0  0  0  0  0  0  0  0  0  0
   -7.5890   -4.8594   -2.8520 H   0  0  0  0  0  0  0  0  0  0  0  0
   -6.4068   -4.7301   -1.4942 H   0  0  0  0  0  0  0  0  0  0  0  0
   -8.5247   -5.0070   -0.4009 H   0  0  0  0  0  0  0  0  0  0  0  0
   -9.0827   -6.2447   -1.5825 H   0  0  0  0  0  0  0  0  0  0  0  0
  1  2  1  0
  1  3  1  0
  4  5  1  0
  3  5  1  0
  4  7  1  0
  7  8  1  0
  6  9  1  0
  8  9  1  0
  1 10  1  0
  1 11  1  0
  2 12  1  0
  2 13  1  0
  3 14  1  0
  3 15  1  0
  4 16  1  0
  5 17  1  0
  5 18  1  0
  6 19  1  0
  6 20  1  0
  7 21  1  0
  7 22  1  0
  8 23  1  0
  8 24  1  0
  9 25  1  0
  9 26  1  0
M  END
