1HP0_AD3_A_1315
     RDKit          3D

 33 35  0  0  0  0  0  0  0  0999 V2000
   19.4614   23.2066   17.3871 O   0  0  0  0  0  0  0  0  0  0  0  0
   18.2648   23.3767   16.6295 C   0  0  0  0  0  0  0  0  0  0  0  0
   17.4178   24.6051   17.0436 C   0  0  2  0  0  0  0  0  0  0  0  0
   16.5859   24.6988   15.8452 O   0  0  0  0  0  0  0  0  0  0  0  0
   18.5635   25.6233   16.9328 C   0  0  2  0  0  0  0  0  0  0  0  0
   18.5400   26.3747   18.1473 O   0  0  0  0  0  0  0  0  0  0  0  0
   18.2880   26.4199   15.6254 C   0  0  2  0  0  0  0  0  0  0  0  0
   18.1592   27.8424   15.7045 O   0  0  0  0  0  0  0  0  0  0  0  0
   16.9952   25.8227   15.0608 C   0  0  1  0  0  0  0  0  0  0  0  0
   16.8909   25.6617   13.5736 N   0  0  0  0  0  4  0  0  0  0  0  0
   17.1526   24.4854   12.8280 C   0  0  0  0  0  0  0  0  0  0  0  0
   16.9742   24.5853   11.5247 N   0  0  0  0  0  0  0  0  0  0  0  0
   16.5603   25.9187   11.3670 C   0  0  0  0  0  0  0  0  0  0  0  0
   16.1834   26.7081   10.2056 C   0  0  0  0  0  0  0  0  0  0  0  0
   16.1754   26.2289    8.9649 N   0  0  0  0  0  0  0  0  0  0  0  0
   15.8159   28.0239   10.4192 N   0  0  0  0  0  0  0  0  0  0  0  0
   15.8126   28.5502   11.6755 C   0  0  0  0  0  0  0  0  0  0  0  0
   16.1382   27.9328   12.8401 C   0  0  0  0  0  0  0  0  0  0  0  0
   16.5080   26.5936   12.6180 C   0  0  0  0  0  0  0  0  0  0  0  0
   19.9352   22.4214   17.0713 H   0  0  0  0  0  0  0  0  0  0  0  0
   18.5331   23.4864   15.5994 H   0  0  0  0  0  0  0  0  0  0  0  0
   17.6610   22.5124   16.8120 H   0  0  0  0  0  0  0  0  0  0  0  0
   16.8520   24.6572   17.9503 H   0  0  0  0  0  0  0  0  0  0  0  0
   19.5538   25.2273   16.8464 H   0  0  0  0  0  0  0  0  0  0  0  0
   17.6577   26.7576   18.2736 H   0  0  0  0  0  0  0  0  0  0  0  0
   19.1617   26.3131   15.0169 H   0  0  0  0  0  0  0  0  0  0  0  0
   17.3844   28.0675   16.2431 H   0  0  0  0  0  0  0  0  0  0  0  0
   16.2544   26.5864   15.1745 H   0  0  0  0  0  0  0  0  0  0  0  0
   17.4623   23.6084   13.2751 H   0  0  0  0  0  0  0  0  0  0  0  0
   16.4345   25.2942    8.7965 H   0  0  0  0  0  0  0  0  0  0  0  0
   15.9104   26.8090    8.2148 H   0  0  0  0  0  0  0  0  0  0  0  0
   15.5278   29.5392   11.7514 H   0  0  0  0  0  0  0  0  0  0  0  0
   16.1173   28.3864   13.7668 H   0  0  0  0  0  0  0  0  0  0  0  0
  1  2  1  0
  3  2  1  0
  3  4  1  0
  3  5  1  0
  5  6  1  0
  5  7  1  0
  7  8  1  0
  4  9  1  0
  7  9  1  0
  9 10  1  0
 10 11  4  0
 11 12  4  0
 12 13  4  0
 13 14  4  0
 14 15  1  0
 14 16  4  0
 16 17  4  0
 17 18  4  0
 10 19  4  0
 13 19  4  0
 18 19  4  0
  1 20  1  0
  2 21  1  0
  2 22  1  0
  3 23  1  6
  5 24  1  1
  6 25  1  0
  7 26  1  1
  8 27  1  0
  9 28  1  6
 11 29  1  0
 15 30  1  0
 15 31  1  0
 17 32  1  0
 18 33  1  0
M  CHG  1  10   1
M  END
