8ERS_WQO_A_201
     RDKit          3D

 23 25  0  0  0  0  0  0  0  0999 V2000
  -37.3921   -3.6954    1.6581 C   0  0  0  0  0  0  0  0  0  0  0  0
  -36.2626   -5.5576    2.7015 C   0  0  0  0  0  0  0  0  0  0  0  0
  -37.0662   -4.4229    2.8077 C   0  0  0  0  0  0  0  0  0  0  0  0
  -35.8044   -5.9342    1.4350 C   0  0  0  0  0  0  0  0  0  0  0  0
  -34.9742   -7.1706    1.6119 C   0  0  0  0  0  0  0  0  0  0  0  0
  -33.8683   -8.1640    3.6203 C   0  0  0  0  0  0  0  0  0  0  0  0
  -34.4645   -6.9481    3.0422 C   0  0  2  0  0  0  0  0  0  0  0  0
  -36.1253   -5.2173    0.3009 C   0  0  0  0  0  0  0  0  0  0  0  0
  -36.9197   -4.0998    0.4242 C   0  0  0  0  0  0  0  0  0  0  0  0
  -35.3269   -4.4571    9.7861 C   0  0  0  0  0  0  0  0  0  0  0  0
  -36.3644   -5.3657    9.7327 C   0  0  0  0  0  0  0  0  0  0  0  0
  -36.7138   -5.9847    8.5294 C   0  0  0  0  0  0  0  0  0  0  0  0
  -35.9916   -5.6616    7.3957 C   0  0  0  0  0  0  0  0  0  0  0  0
  -36.2775   -6.2543    6.0852 C   0  0  0  0  0  0  0  0  0  0  0  0
  -35.7440   -6.5300    3.7035 C   0  0  1  0  0  0  0  0  0  0  0  0
  -34.9581   -4.7504    7.4724 C   0  0  0  0  0  0  0  0  0  0  0  0
  -34.5892   -4.1226    8.6449 C   0  0  0  0  0  0  0  0  0  0  0  0
  -34.9300   -3.7984   10.9848 N   0  0  0  0  0  0  0  0  0  0  0  0
  -37.7422   -6.8970    8.4323 O   0  0  0  0  0  0  0  0  0  0  0  0
  -35.5096   -5.9705    4.9664 O   0  0  0  0  0  0  0  0  0  0  0  0
  -32.4960   -8.2163    3.7607 O   0  0  0  0  0  0  0  0  0  0  0  0
  -34.5231   -9.1688    3.9996 O   0  0  0  0  0  0  0  0  0  0  0  0
  -37.2448   -7.0586    5.9101 O   0  0  0  0  0  0  0  0  0  0  0  0
  1  3  2  0
  2  3  1  0
  2  4  2  0
  4  5  1  0
  5  7  1  0
  7  6  1  1
  4  8  1  0
  1  9  1  0
  8  9  2  0
 10 11  2  0
 11 12  1  0
 12 13  2  0
 13 14  1  0
  2 15  1  0
  7 15  1  0
 13 16  1  0
 16 17  2  0
 10 17  1  0
 10 18  1  0
 12 19  1  0
 15 20  1  1
 14 20  1  0
  6 21  1  0
  6 22  2  0
 14 23  2  0
M  END
$$$$
