7DKT_GLF_A_1001
     RDKit          3D

 12 12  0  0  0  0  0  0  0  0999 V2000
   66.0978   80.1198   69.0992 C   0  0  1  0  0  0  0  0  0  0  0  0
   65.0933   81.0247   69.7983 C   0  0  1  0  0  0  0  0  0  0  0  0
   65.8872   82.0076   70.6025 C   0  0  2  0  0  0  0  0  0  0  0  0
   66.6621   81.2432   71.6404 C   0  0  1  0  0  0  0  0  0  0  0  0
   67.4901   80.1944   70.9565 C   0  0  1  0  0  0  0  0  0  0  0  0
   68.0743   79.2062   71.9686 C   0  0  0  0  0  0  0  0  0  0  0  0
   66.8681   80.8363   68.2341 F   0  0  0  0  0  0  0  0  0  0  0  0
   64.3277   81.6145   68.7973 O   0  0  0  0  0  0  0  0  0  0  0  0
   65.0867   82.9761   71.1915 O   0  0  0  0  0  0  0  0  0  0  0  0
   67.5108   82.1372   72.2872 O   0  0  0  0  0  0  0  0  0  0  0  0
   66.7903   79.4179   70.0582 O   0  0  0  0  0  0  0  0  0  0  0  0
   68.8325   78.2190   71.3737 O   0  0  0  0  0  0  0  0  0  0  0  0
  1  2  1  0
  2  3  1  0
  3  4  1  0
  4  5  1  0
  5  6  1  0
  1  7  1  1
  2  8  1  6
  3  9  1  1
  4 10  1  6
  1 11  1  0
  5 11  1  6
  6 12  1  6
M  END
$$$$
