
     RDKit          3D

 18 19  0  0  0  0  0  0  0  0999 V2000
   19.7597   39.6308   23.3633 C   0  0  0  0  0  0  0  0  0  0  0  0
   24.0513   38.9487   21.4680 N   0  0  0  0  0  0  0  0  0  0  0  0
   25.5238   40.3026   16.9803 C   0  0  0  0  0  0  0  0  0  0  0  0
   27.8922   44.5896   16.0593 O   0  0  0  0  0  0  0  0  0  0  0  0
   27.0750   44.3441   17.2019 C   0  0  0  0  0  0  0  0  0  0  0  0
   27.3126   42.9239   17.7158 C   0  0  0  0  0  0  0  0  0  0  0  0
   24.2095   42.0057   19.9452 C   0  0  0  0  0  0  0  0  0  0  0  0
   25.4803   43.1383   19.8164 S   0  0  0  0  0  0  0  0  0  0  0  0
   26.0982   42.3698   18.4117 C   0  0  0  0  0  0  0  0  0  0  0  0
   25.3257   41.2659   18.0927 C   0  0  0  0  0  0  0  0  0  0  0  0
   24.2504   41.1123   18.9679 N   0  0  0  0  0  4  0  0  0  0  0  0
   23.2387   40.0420   18.8699 C   0  0  0  0  0  0  0  0  0  0  0  0
   22.7557   39.4279   21.2754 C   0  0  0  0  0  0  0  0  0  0  0  0
   21.9384   39.2972   22.3228 N   0  0  0  0  0  0  0  0  0  0  0  0
   20.6920   39.7884   22.2030 C   0  0  0  0  0  0  0  0  0  0  0  0
   20.2216   40.3755   21.0904 N   0  0  0  0  0  0  0  0  0  0  0  0
   21.0687   40.4749   20.0554 C   0  0  0  0  0  0  0  0  0  0  0  0
   22.3625   39.9950   20.0802 C   0  0  0  0  0  0  0  0  0  0  0  0
  4  5  1  0
  5  6  1  0
  7  8  4  0
  6  9  1  0
  8  9  4  0
  3 10  1  0
  9 10  4  0
  7 11  4  0
 10 11  4  0
 11 12  1  0
  2 13  1  0
 13 14  4  0
  1 15  1  0
 14 15  4  0
 15 16  4  0
 16 17  4  0
 12 18  1  0
 13 18  4  0
 17 18  4  0
M  CHG  1  11   1
M  END
