@<TRIPOS>MOLECULE
1TT1_KAI_A_998
 30 30 0 0 0
SMALL
GASTEIGER

@<TRIPOS>ATOM
      1 N           2.1690    0.5040   24.1980 N.3     1  UNL1       -0.3033
      2 C           0.8890    0.0040   24.8850 C.3     1  UNL1        0.0035
      3 C          -0.9750   -0.0870   27.1820 C.2     1  UNL1       -0.0994
      4 C           0.7020   -0.2880   28.9520 C.3     1  UNL1       -0.0437
      5 CA          3.1870    0.7010   25.2160 C.3     1  UNL1        0.1096
      6 C           2.4360    0.9210   26.5050 C.3     1  UNL1        0.0024
      7 C           1.8050    2.3820   26.7350 C.3     1  UNL1        0.0501
      8 C           1.3620   -0.1190   26.4070 C.3     1  UNL1       -0.0026
      9 C           2.8530    3.3780   27.2490 C.2     1  UNL1        0.3050
     10 C           0.2610   -0.1620   27.5430 C.2     1  UNL1       -0.0751
     11 C           4.2550   -0.4590   25.2630 C.2     1  UNL1        0.3222
     12 O           4.3490   -1.1400   24.2180 O.2     1  UNL1       -0.2492
     13 O           2.4780    4.5590   27.2590 O.3     1  UNL1       -0.4806
     14 O           3.9750    2.9610   27.6130 O.2     1  UNL1       -0.2510
     15 OXT         4.9320   -0.5650   26.3310 O.3     1  UNL1       -0.4795
     16 H           1.9824    1.3864   23.7217 H       1  UNL1        0.1227
     17 H           0.5820   -0.9437   24.4946 H       1  UNL1        0.0430
     18 H           0.0432    0.6441   24.7443 H       1  UNL1        0.0430
     19 H          -1.7226   -0.1116   27.8930 H       1  UNL1        0.0534
     20 H          -1.2163   -0.0023   26.1822 H       1  UNL1        0.0534
     21 H          -0.1541   -0.3029   29.5937 H       1  UNL1        0.0274
     22 H           1.3243    0.5443   29.2068 H       1  UNL1        0.0274
     23 H           1.2543   -1.1964   29.0730 H       1  UNL1        0.0274
     24 HA          3.7990    1.5517   25.0001 H       1  UNL1        0.0579
     25 H           3.0959    0.8470   27.3440 H       1  UNL1        0.0332
     26 H           1.0144    2.3093   27.4524 H       1  UNL1        0.0381
     27 H           1.4383    2.7388   25.7953 H       1  UNL1        0.0381
     28 H           1.7246   -1.1007   26.6299 H       1  UNL1        0.0361
     29 H           1.6155    4.7792   26.9665 H       1  UNL1        0.2951
     30 HXT         4.7645    0.0108   27.0510 H       1  UNL1        0.2951
@<TRIPOS>BOND
     1     1     2    1
     2     1     5    1
     3     5     6    1
     4     6     7    1
     5     2     8    1
     6     6     8    1
     7     7     9    1
     8     3    10    2
     9     4    10    1
    10     8    10    1
    11     5    11    1
    12    11    12    2
    13     9    13    1
    14     9    14    2
    15    11    15    1
    16     1    16    1
    17     2    17    1
    18     2    18    1
    19     3    19    1
    20     3    20    1
    21     4    21    1
    22     4    22    1
    23     4    23    1
    24     5    24    1
    25     6    25    1
    26     7    26    1
    27     7    27    1
    28     8    28    1
    29    13    29    1
    30    15    30    1
