7ELT_TYM_A_401
     RDKit          3D

 37 41  0  0  0  0  0  0  0  0999 V2000
    6.2171   44.5672   13.0415 P   0  0  2  0  0  0  0  0  0  0  0  0
    7.0657   43.0927   13.0144 O   0  0  0  0  0  0  0  0  0  0  0  0
    4.9403   44.2941   13.8254 O   0  0  0  0  0  0  0  0  0  0  0  0
    5.8866   45.0009   11.4548 O   0  0  0  0  0  0  0  0  0  0  0  0
    6.8863   44.6252   10.5775 C   0  0  0  0  0  0  0  0  0  0  0  0
    8.1158   45.5034   10.6420 C   0  0  1  0  0  0  0  0  0  0  0  0
    8.6754   45.5894   11.9004 O   0  0  0  0  0  0  0  0  0  0  0  0
   10.0135   45.9465   11.6271 C   0  0  1  0  0  0  0  0  0  0  0  0
   10.8176   45.9433   12.8048 N   0  0  0  0  0  0  0  0  0  0  0  0
   11.9797   46.6059   12.9343 C   0  0  0  0  0  0  0  0  0  0  0  0
   12.6773   47.4018   12.0731 N   0  0  0  0  0  0  0  0  0  0  0  0
   13.8432   47.9405   12.5008 C   0  0  0  0  0  0  0  0  0  0  0  0
   14.3361   47.7220   13.7341 N   0  0  0  0  0  0  0  0  0  0  0  0
   13.6854   46.9451   14.6186 C   0  0  0  0  0  0  0  0  0  0  0  0
   14.2158   46.7153   15.9345 N   0  0  0  0  0  0  0  0  0  0  0  0
   12.4961   46.3884   14.1995 C   0  0  0  0  0  0  0  0  0  0  0  0
   11.6034   45.5727   14.8230 N   0  0  0  0  0  0  0  0  0  0  0  0
   10.5873   45.3073   13.9690 C   0  0  0  0  0  0  0  0  0  0  0  0
   10.3492   44.8040   10.6599 C   0  0  2  0  0  0  0  0  0  0  0  0
   11.5659   44.9599   10.0452 O   0  0  0  0  0  0  0  0  0  0  0  0
    9.1654   44.9823    9.6981 C   0  0  2  0  0  0  0  0  0  0  0  0
    9.5173   46.0259    8.8308 O   0  0  0  0  0  0  0  0  0  0  0  0
    6.7232   47.9677   16.6796 N   0  0  0  0  0  0  0  0  0  0  0  0
    7.6260   47.1117   15.9590 C   0  0  1  0  0  0  0  0  0  0  0  0
    8.5047   46.3701   16.9227 C   0  0  0  0  0  0  0  0  0  0  0  0
    9.6252   45.6493   16.3198 C   0  0  0  0  0  0  0  0  0  0  0  0
   10.3040   44.5169   16.6850 C   0  0  0  0  0  0  0  0  0  0  0  0
   11.3227   44.2522   15.7788 C   0  0  0  0  0  0  0  0  0  0  0  0
   10.1274   43.6636   17.7436 C   0  0  0  0  0  0  0  0  0  0  0  0
   10.2608   46.0780   15.1501 C   0  0  0  0  0  0  0  0  0  0  0  0
   11.2655   45.2278   14.8541 N   0  0  0  0  0  0  0  0  0  0  0  0
   12.1479   43.1710   15.9151 C   0  0  0  0  0  0  0  0  0  0  0  0
   10.9356   42.5572   17.9247 C   0  0  0  0  0  0  0  0  0  0  0  0
   11.9355   42.3382   16.9951 C   0  0  0  0  0  0  0  0  0  0  0  0
    6.7960   46.1297   15.1816 C   0  0  0  0  0  0  0  0  0  0  0  0
    5.8141   45.6372   15.7983 O   0  0  0  0  0  0  0  0  0  0  0  0
    7.0861   45.7849   13.8743 O   0  0  0  0  0  0  0  0  0  0  0  0
  1  2  1  6
  1  3  2  0
  1  4  1  0
  4  5  1  0
  6  5  1  1
  6  7  1  0
  7  8  1  0
  8  9  1  1
  9 10  1  0
 10 11  2  0
 11 12  1  0
 12 13  2  0
 13 14  1  0
 14 15  1  0
 10 16  1  0
 14 16  2  0
 16 17  1  0
  9 18  1  0
 17 18  2  0
  8 19  1  0
 19 20  1  6
  6 21  1  0
 19 21  1  0
 21 22  1  6
 24 23  1  1
 24 25  1  0
 25 26  1  0
 26 27  1  0
 27 28  1  0
 27 29  2  0
 26 30  2  0
 28 31  1  0
 30 31  1  0
 28 32  2  0
 29 33  1  0
 32 34  1  0
 33 34  2  0
 24 35  1  0
 35 36  2  0
  1 37  1  0
 35 37  1  0
M  END
$$$$
