
     RDKit          3D

 18 17  0  0  0  0  0  0  0  0999 V2000
   11.6097   34.7746   25.6363 C   0  0  0  0  0  0  0  0  0  0  0  0
    9.2996   36.8198   22.8336 C   0  0  0  0  0  0  0  0  0  0  0  0
   10.0133   38.1452   23.1228 C   0  0  0  0  0  0  0  0  0  0  0  0
   10.5121   38.7979   21.8312 C   0  0  0  0  0  0  0  0  0  0  0  0
    9.3863   39.1646   20.8582 C   0  0  0  0  0  0  0  0  0  0  0  0
    9.6138   40.4983   20.1414 C   0  0  0  0  0  0  0  0  0  0  0  0
   10.6847   40.4249   19.0479 C   0  0  0  0  0  0  0  0  0  0  0  0
   10.8092   41.7099   18.2284 C   0  0  0  0  0  0  0  0  0  0  0  0
   10.7901   41.4184   16.7354 C   0  0  0  0  0  0  0  0  0  0  0  0
   10.6167   34.2186   26.6495 C   0  0  0  0  0  0  0  0  0  0  0  0
   10.2827   35.2346   27.7421 C   0  0  0  0  0  0  0  0  0  0  0  0
   11.2245   35.1135   28.9076 C   0  0  0  0  0  0  0  0  0  0  0  0
   11.4361   35.5062   23.2886 C   0  0  0  0  0  0  0  0  0  0  0  0
   10.2636   35.7366   22.3510 C   0  0  0  0  0  0  0  0  0  0  0  0
   11.1532   34.5808   24.2744 N   0  0  0  0  0  0  0  0  0  0  0  0
   12.5111   36.0861   23.1935 O   0  0  0  0  0  0  0  0  0  0  0  0
   11.9242   35.9880   29.3882 O   0  0  0  0  0  0  0  0  0  0  0  0
   11.2252   33.8708   29.4274 O   0  0  0  0  0  0  0  0  0  0  0  0
  2  3  1  0
  3  4  1  0
  4  5  1  0
  5  6  1  0
  6  7  1  0
  7  8  1  0
  8  9  1  0
  1 10  1  0
 10 11  1  0
 11 12  1  0
  2 14  1  0
 13 14  1  0
 13 15  1  0
  1 15  1  0
 13 16  2  0
 12 17  2  0
 12 18  1  0
M  END
