7R9N_F97_B_301
     RDKit          3D

 31 35  0  0  0  0  0  0  0  0999 V2000
  -40.5255  -93.3054  239.7476 C   0  0  0  0  0  0  0  0  0  0  0  0
  -40.9161  -94.5045  240.3420 C   0  0  0  0  0  0  0  0  0  0  0  0
  -40.9919  -95.6472  239.5533 C   0  0  0  0  0  0  0  0  0  0  0  0
  -40.2242  -93.3154  238.3700 C   0  0  0  0  0  0  0  0  0  0  0  0
  -39.9233  -91.2332  239.0970 N   0  0  0  0  0  0  0  0  0  0  0  0
  -41.6098  -98.6633  241.6241 C   0  0  0  0  0  0  0  0  0  0  0  0
  -41.9054  -96.3274  245.9638 C   0  0  0  0  0  0  0  0  0  0  0  0
  -41.7156  -94.9577  246.6717 C   0  0  0  0  0  0  0  0  0  0  0  0
  -41.8449  -94.5745  244.2903 C   0  0  0  0  0  0  0  0  0  0  0  0
  -43.2055 -100.9109  243.9239 C   0  0  0  0  0  0  0  0  0  0  0  0
  -41.7043  -90.5768  241.5716 C   0  0  0  0  0  0  0  0  0  0  0  0
  -40.5174  -91.5431  241.5352 C   0  0  2  0  0  0  0  0  0  0  0  0
  -39.2191  -90.8356  241.9159 C   0  0  0  0  0  0  0  0  0  0  0  0
  -40.3419  -92.0295  240.1707 N   0  0  0  0  0  0  0  0  0  0  0  0
  -40.6839  -95.6160  238.2662 N   0  0  0  0  0  0  0  0  0  0  0  0
  -40.3215  -94.5097  237.6583 C   0  0  0  0  0  0  0  0  0  0  0  0
  -39.8516  -91.9556  238.0195 C   0  0  0  0  0  0  0  0  0  0  0  0
  -41.3513  -96.9030  240.0471 N   0  0  0  0  0  0  0  0  0  0  0  0
  -41.5667  -97.2942  241.3565 C   0  0  0  0  0  0  0  0  0  0  0  0
  -41.8270  -99.0703  242.9244 C   0  0  0  0  0  0  0  0  0  0  0  0
  -42.0183  -98.1759  243.8716 N   0  0  0  0  0  0  0  0  0  0  0  0
  -41.9681  -96.8847  243.5815 C   0  0  0  0  0  0  0  0  0  0  0  0
  -41.7569  -96.4437  242.3570 N   0  0  0  0  0  0  0  0  0  0  0  0
  -42.1842  -95.9655  244.5662 N   0  0  0  0  0  0  0  0  0  0  0  0
  -42.2185  -93.9189  245.6271 C   0  0  2  0  0  0  0  0  0  0  0  0
  -41.5890  -92.6787  245.7429 F   0  0  0  0  0  0  0  0  0  0  0  0
  -43.5951  -93.7763  245.7442 F   0  0  0  0  0  0  0  0  0  0  0  0
  -41.8569 -100.5349  243.2598 C   0  0  1  0  0  0  0  0  0  0  0  0
  -42.8032 -102.1863  244.7032 C   0  0  0  0  0  0  0  0  0  0  0  0
  -41.4299 -101.9240  245.1819 N   0  0  0  0  0  0  0  0  0  0  0  0
  -40.8483 -100.8245  244.3874 C   0  0  0  0  0  0  0  0  0  0  0  0
  1  2  2  0
  2  3  1  0
  1  4  1  0
  7  8  1  0
 12 11  1  6
 12 13  1  0
  1 14  1  0
  5 14  1  0
 12 14  1  0
  3 15  2  0
 15 16  1  0
  4 16  2  0
  4 17  1  0
  5 17  2  0
  3 18  1  0
 18 19  1  0
  6 19  2  0
  6 20  1  0
 20 21  2  0
 21 22  1  0
 19 23  1  0
 22 23  2  0
 22 24  1  0
  9 24  1  0
  7 24  1  0
  9 25  1  0
  8 25  1  0
 25 26  1  1
 25 27  1  0
 10 28  1  0
 28 20  1  1
 10 29  1  0
 29 30  1  0
 28 31  1  0
 30 31  1  0
M  END
