7PA4_C_A_606
     RDKit          3D

 21 22  0  0  0  0  0  0  0  0999 V2000
   16.1417   20.8929   27.6565 O   0  0  0  0  0  0  0  0  0  0  0  0
   14.6643   21.1023   27.9651 P   0  0  1  0  0  0  0  0  0  0  0  0
   13.9159   19.8432   28.3821 O   0  0  0  0  0  0  0  0  0  0  0  0
   14.3478   22.2689   28.8595 O   0  0  0  0  0  0  0  0  0  0  0  0
   14.0491   21.6459   26.5777 O   0  0  0  0  0  0  0  0  0  0  0  0
   14.0227   23.0406   26.2725 C   0  0  0  0  0  0  0  0  0  0  0  0
   15.0946   23.7210   27.0878 C   0  0  1  0  0  0  0  0  0  0  0  0
   16.1024   22.7609   27.4647 O   0  0  0  0  0  0  0  0  0  0  0  0
   15.9164   24.7740   26.3658 C   0  0  1  0  0  0  0  0  0  0  0  0
   15.1869   25.9932   26.2161 O   0  0  0  0  0  0  0  0  0  0  0  0
   17.1551   24.8887   27.2625 C   0  0  1  0  0  0  0  0  0  0  0  0
   16.9080   25.7507   28.3546 O   0  0  0  0  0  0  0  0  0  0  0  0
   17.3099   23.4426   27.7519 C   0  0  2  0  0  0  0  0  0  0  0  0
   18.4407   22.7066   27.1762 N   0  0  0  0  0  0  0  0  0  0  0  0
   19.7270   22.9435   27.6960 C   0  0  0  0  0  0  0  0  0  0  0  0
   19.8655   23.7413   28.6320 O   0  0  0  0  0  0  0  0  0  0  0  0
   20.7711   22.2616   27.1996 N   0  0  0  0  0  0  0  0  0  0  0  0
   20.6021   21.4327   26.1723 C   0  0  0  0  0  0  0  0  0  0  0  0
   21.6695   20.7779   25.7357 N   0  0  0  0  0  0  0  0  0  0  0  0
   19.3088   21.1712   25.6130 C   0  0  0  0  0  0  0  0  0  0  0  0
   18.2707   21.8460   26.1219 C   0  0  0  0  0  0  0  0  0  0  0  0
  2  1  1  6
  2  3  2  0
  2  4  1  0
  2  5  1  0
  5  6  1  0
  7  6  1  6
  7  8  1  0
  7  9  1  0
  9 10  1  1
  9 11  1  0
 11 12  1  1
  8 13  1  0
 11 13  1  0
 13 14  1  6
 14 15  1  0
 15 16  2  0
 15 17  1  0
 17 18  2  0
 18 19  1  0
 18 20  1  0
 14 21  1  0
 20 21  2  0
M  END
