7DIN_MPO_A_201
     RDKit          3D

 13 13  0  0  0  0  0  0  0  0999 V2000
   27.9653   -2.6754  -11.4941 S   0  0  2  0  0  6  0  0  0  0  0  0
   27.3966   -3.0836  -10.1776 O   0  0  0  0  0  0  0  0  0  0  0  0
   28.1494   -3.8276  -12.4346 O   0  0  0  0  0  0  0  0  0  0  0  0
   35.6930   -2.8184  -12.4246 O   0  0  0  0  0  0  0  0  0  0  0  0
   33.0955   -2.8811  -11.4157 N   0  0  0  0  0  0  0  0  0  0  0  0
   29.4758   -1.7742  -11.3281 C   0  0  0  0  0  0  0  0  0  0  0  0
   26.7946   -1.6651  -12.2162 O   0  0  0  0  0  0  0  0  0  0  0  0
   30.6378   -2.7244  -11.2597 C   0  0  0  0  0  0  0  0  0  0  0  0
   31.9623   -2.1374  -10.9980 C   0  0  0  0  0  0  0  0  0  0  0  0
   33.4092   -2.8392  -12.7972 C   0  0  0  0  0  0  0  0  0  0  0  0
   34.7237   -3.5909  -13.0102 C   0  0  0  0  0  0  0  0  0  0  0  0
   35.5531   -2.7734  -11.0639 C   0  0  0  0  0  0  0  0  0  0  0  0
   34.1793   -2.7834  -10.5134 C   0  0  0  0  0  0  0  0  0  0  0  0
  1  2  2  0
  1  3  2  0
  6  1  1  1
  1  7  1  6
  6  8  1  0
  9  5  1  1
  8  9  1  1
 10  5  1  1
 11  4  1  6
 10 11  1  0
 12  4  1  1
 13  5  1  1
 12 13  1  0
M  END
$$$$
