7KC5_BJZ_A_402
     RDKit          3D

 56 60  0  0  0  0  0  0  0  0999 V2000
    1.0572   -6.0419    1.1459 C   0  0  0  0  0  0  0  0  0  0  0  0
    0.9009   -4.9351    0.3039 C   0  0  0  0  0  0  0  0  0  0  0  0
    0.4529   -3.7086    0.8199 C   0  0  0  0  0  0  0  0  0  0  0  0
    0.1672   -3.6036    2.1917 C   0  0  0  0  0  0  0  0  0  0  0  0
    0.3304   -4.7086    3.0346 C   0  0  0  0  0  0  0  0  0  0  0  0
    0.7740   -5.9274    2.5112 C   0  0  0  0  0  0  0  0  0  0  0  0
   -0.0182   -4.5652    4.7481 Cl  0  0  0  0  0  0  0  0  0  0  0  0
    0.2992   -2.5718   -0.0464 N   0  0  0  0  0  0  0  0  0  0  0  0
   -0.7773   -2.2849   -0.9259 C   0  0  0  0  0  0  0  0  0  0  0  0
   -0.6983   -0.9809   -1.4928 N   0  0  0  0  0  0  0  0  0  0  0  0
    0.4746   -0.3022   -0.9185 C   0  0  1  0  0  0  0  0  0  0  0  0
    1.0868   -1.3852   -0.0564 C   0  0  0  0  0  0  0  0  0  0  0  0
    2.1634   -1.2615    0.5888 O   0  0  0  0  0  0  0  0  0  0  0  0
    1.4710    0.1857   -1.9781 C   0  0  0  0  0  0  0  0  0  0  0  0
    2.0042    1.4357   -1.4459 N   0  0  0  0  0  0  0  0  0  0  0  0
    1.3100    1.8844   -0.2436 C   0  0  0  0  0  0  0  0  0  0  0  0
    0.0862    0.9671   -0.1280 C   0  0  2  0  0  0  0  0  0  0  0  0
   -0.4652    0.7106    1.2711 C   0  0  0  0  0  0  0  0  0  0  0  0
   -1.7587    0.1698    1.3922 C   0  0  0  0  0  0  0  0  0  0  0  0
   -2.2824   -0.1585    2.6452 C   0  0  0  0  0  0  0  0  0  0  0  0
   -1.5176    0.0377    3.7990 C   0  0  0  0  0  0  0  0  0  0  0  0
   -0.2255    0.5621    3.6938 C   0  0  0  0  0  0  0  0  0  0  0  0
    0.3019    0.8903    2.4411 C   0  0  0  0  0  0  0  0  0  0  0  0
   -2.0528   -0.3110    5.0889 C   0  0  0  0  0  0  0  0  0  0  0  0
   -2.4820   -0.5891    6.1276 N   0  0  0  0  0  0  0  0  0  0  0  0
    3.1227    2.1494   -2.0088 C   0  0  0  0  0  0  0  0  0  0  0  0
    4.1110    2.6031   -1.1886 N   0  0  0  0  0  0  0  0  0  0  0  0
    5.1950    3.2756   -1.6579 C   0  0  0  0  0  0  0  0  0  0  0  0
    5.3326    3.5264   -3.0326 C   0  0  0  0  0  0  0  0  0  0  0  0
    4.3225    3.0768   -3.8953 C   0  0  0  0  0  0  0  0  0  0  0  0
    3.2178    2.3898   -3.3893 C   0  0  0  0  0  0  0  0  0  0  0  0
    6.5116    4.2470   -3.5622 C   0  0  0  0  0  0  0  0  0  0  0  0
    7.0042    5.2186   -2.9272 O   0  0  0  0  0  0  0  0  0  0  0  0
    7.0916    3.8539   -4.7663 O   0  0  0  0  0  0  0  0  0  0  0  0
   -1.6651   -0.4344   -2.4437 C   0  0  0  0  0  0  0  0  0  0  0  0
   -1.6859   -3.1107   -1.2110 O   0  0  0  0  0  0  0  0  0  0  0  0
    1.6005   -7.5749    0.4860 Cl  0  0  0  0  0  0  0  0  0  0  0  0
    1.1074   -5.0388   -0.7535 H   0  0  0  0  0  0  0  0  0  0  0  0
   -0.1582   -2.6597    2.6103 H   0  0  0  0  0  0  0  0  0  0  0  0
    0.8956   -6.7843    3.1620 H   0  0  0  0  0  0  0  0  0  0  0  0
    0.9708    0.3887   -2.9485 H   0  0  0  0  0  0  0  0  0  0  0  0
    2.2894   -0.5498   -2.1425 H   0  0  0  0  0  0  0  0  0  0  0  0
    2.0030    1.8072    0.6161 H   0  0  0  0  0  0  0  0  0  0  0  0
    0.9887    2.9441   -0.3576 H   0  0  0  0  0  0  0  0  0  0  0  0
   -0.7108    1.4900   -0.7029 H   0  0  0  0  0  0  0  0  0  0  0  0
   -2.3620   -0.0103    0.5109 H   0  0  0  0  0  0  0  0  0  0  0  0
   -3.2810   -0.5736    2.7122 H   0  0  0  0  0  0  0  0  0  0  0  0
    0.3808    0.7066    4.5805 H   0  0  0  0  0  0  0  0  0  0  0  0
    1.3153    1.2587    2.4018 H   0  0  0  0  0  0  0  0  0  0  0  0
    5.9485    3.6087   -0.9558 H   0  0  0  0  0  0  0  0  0  0  0  0
    4.3883    3.2495   -4.9629 H   0  0  0  0  0  0  0  0  0  0  0  0
    2.4490    2.0571   -4.0732 H   0  0  0  0  0  0  0  0  0  0  0  0
    7.8929    4.3457   -5.1431 H   0  0  0  0  0  0  0  0  0  0  0  0
   -1.6940   -1.0716   -3.3517 H   0  0  0  0  0  0  0  0  0  0  0  0
   -1.3880    0.5971   -2.7444 H   0  0  0  0  0  0  0  0  0  0  0  0
   -2.6728   -0.4122   -1.9782 H   0  0  0  0  0  0  0  0  0  0  0  0
  1  2  4  0
  2  3  4  0
  3  4  4  0
  4  5  4  0
  1  6  4  0
  5  6  4  0
  5  7  1  0
  3  8  1  0
  8  9  1  0
  9 10  1  0
 11 10  1  0
  8 12  1  0
 11 12  1  6
 12 13  2  0
 11 14  1  0
 14 15  1  0
 15 16  1  0
 11 17  1  0
 16 17  1  0
 17 18  1  0
 18 19  4  0
 19 20  4  0
 20 21  4  0
 21 22  4  0
 18 23  4  0
 22 23  4  0
 21 24  1  0
 24 25  3  0
 15 26  1  0
 26 27  4  0
 27 28  4  0
 28 29  4  0
 29 30  4  0
 26 31  4  0
 30 31  4  0
 29 32  1  0
 32 33  2  0
 32 34  1  0
 10 35  1  0
  9 36  2  0
  1 37  1  0
  2 38  1  0
  4 39  1  0
  6 40  1  0
 14 41  1  0
 14 42  1  0
 16 43  1  0
 16 44  1  0
 17 45  1  1
 19 46  1  0
 20 47  1  0
 22 48  1  0
 23 49  1  0
 28 50  1  0
 30 51  1  0
 31 52  1  0
 34 53  1  0
 35 54  1  0
 35 55  1  0
 35 56  1  0
M  END
