1YGC_905_H_1
     RDKit          3D

 66 68  0  0  0  0  0  0  0  0999 V2000
   15.5720   39.2866   27.8273 O   0  0  0  0  0  0  0  0  0  0  0  0
   14.4177   38.9753   28.5465 C   0  0  0  0  0  0  0  0  0  0  0  0
   14.1920   39.5846   29.7896 C   0  0  0  0  0  0  0  0  0  0  0  0
   13.0529   39.2780   30.5482 C   0  0  0  0  0  0  0  0  0  0  0  0
   12.8621   39.9259   31.8230 N   0  0  0  0  0  0  0  0  0  0  0  0
   11.7103   40.7781   32.1536 C   0  0  1  0  0  0  0  0  0  0  0  0
   11.1919   40.4809   33.5367 C   0  0  0  0  0  0  0  0  0  0  0  0
   11.1758   39.2959   33.9691 O   0  0  0  0  0  0  0  0  0  0  0  0
   10.7993   41.5597   34.3904 N   0  0  0  0  0  0  0  0  0  0  0  0
    9.6669   41.3047   35.6734 S   0  0  2  0  0  6  0  0  0  0  0  0
   10.1467   40.1828   36.5521 O   0  0  0  0  0  0  0  0  0  0  0  0
    8.3300   40.9298   35.0985 O   0  0  0  0  0  0  0  0  0  0  0  0
    9.5045   42.7994   36.5897 C   0  0  0  0  0  0  0  0  0  0  0  0
   10.1859   43.9495   36.1665 C   0  0  0  0  0  0  0  0  0  0  0  0
   10.0929   45.1323   36.9046 C   0  0  0  0  0  0  0  0  0  0  0  0
    9.3261   45.1702   38.0731 C   0  0  0  0  0  0  0  0  0  0  0  0
    8.6523   44.0225   38.5118 C   0  0  0  0  0  0  0  0  0  0  0  0
    7.8785   44.0578   39.7141 N   0  0  0  0  0  0  0  0  0  0  0  0
    8.7460   42.8367   37.7681 C   0  0  0  0  0  0  0  0  0  0  0  0
   12.0937   42.2453   32.0618 C   0  0  0  0  0  0  0  0  0  0  0  0
   12.9415   42.7088   31.0378 C   0  0  0  0  0  0  0  0  0  0  0  0
   13.4433   41.8479   30.1150 F   0  0  0  0  0  0  0  0  0  0  0  0
   13.2824   44.0644   30.9523 C   0  0  0  0  0  0  0  0  0  0  0  0
   14.1327   44.4705   29.9124 O   0  0  0  0  0  0  0  0  0  0  0  0
   13.6948   45.0694   28.6954 C   0  0  1  0  0  0  0  0  0  0  0  0
   12.1752   45.1130   28.6695 C   0  0  1  0  0  0  0  0  0  0  0  0
   12.7701   44.9698   31.9000 C   0  0  0  0  0  0  0  0  0  0  0  0
   11.9305   44.5197   32.9337 C   0  0  0  0  0  0  0  0  0  0  0  0
   11.3996   45.3838   33.9036 O   0  0  0  0  0  0  0  0  0  0  0  0
   11.8011   46.7394   34.0821 C   0  0  1  0  0  0  0  0  0  0  0  0
   10.8032   47.6590   33.3978 C   0  0  1  0  0  0  0  0  0  0  0  0
   11.6049   43.1635   33.0093 C   0  0  0  0  0  0  0  0  0  0  0  0
   12.1338   38.3423   30.0419 C   0  0  0  0  0  0  0  0  0  0  0  0
   12.3495   37.7356   28.8023 C   0  0  0  0  0  0  0  0  0  0  0  0
   13.4891   38.0415   28.0396 C   0  0  0  0  0  0  0  0  0  0  0  0
   13.6904   37.3886   26.7212 C   0  0  0  0  0  0  0  0  0  0  0  0
   13.6501   36.0965   26.6279 N   0  0  0  0  0  0  0  0  0  0  0  0
   13.9382   38.1751   25.5494 N   0  0  0  0  0  0  0  0  0  0  0  0
   15.7307   38.9276   26.8924 H   0  0  0  0  0  0  0  0  0  0  0  0
   14.9114   40.3000   30.1684 H   0  0  0  0  0  0  0  0  0  0  0  0
   13.5859   39.7633   32.5603 H   0  0  0  0  0  0  0  0  0  0  0  0
   10.8949   40.5662   31.4300 H   0  0  0  0  0  0  0  0  0  0  0  0
   11.3489   42.4470   34.3850 H   0  0  0  0  0  0  0  0  0  0  0  0
   10.7940   43.9264   35.2707 H   0  0  0  0  0  0  0  0  0  0  0  0
   10.6209   46.0176   36.5755 H   0  0  0  0  0  0  0  0  0  0  0  0
    9.2601   46.0916   38.6374 H   0  0  0  0  0  0  0  0  0  0  0  0
    7.5692   44.9670   40.1258 H   0  0  0  0  0  0  0  0  0  0  0  0
    7.6033   43.1743   40.1986 H   0  0  0  0  0  0  0  0  0  0  0  0
    8.2350   41.9461   38.1135 H   0  0  0  0  0  0  0  0  0  0  0  0
   14.0901   46.1058   28.6220 H   0  0  0  0  0  0  0  0  0  0  0  0
   14.0564   44.4718   27.8308 H   0  0  0  0  0  0  0  0  0  0  0  0
   11.8156   45.0709   27.6194 H   0  0  0  0  0  0  0  0  0  0  0  0
   11.7618   44.2459   29.2277 H   0  0  0  0  0  0  0  0  0  0  0  0
   11.8155   46.0542   29.1370 H   0  0  0  0  0  0  0  0  0  0  0  0
   13.0260   46.0166   31.8352 H   0  0  0  0  0  0  0  0  0  0  0  0
   11.8343   46.9822   35.1665 H   0  0  0  0  0  0  0  0  0  0  0  0
   12.8064   46.8970   33.6339 H   0  0  0  0  0  0  0  0  0  0  0  0
   11.2841   48.1701   32.5361 H   0  0  0  0  0  0  0  0  0  0  0  0
    9.9390   47.0665   33.0297 H   0  0  0  0  0  0  0  0  0  0  0  0
   10.4364   48.4231   34.1148 H   0  0  0  0  0  0  0  0  0  0  0  0
   10.9583   42.8250   33.8097 H   0  0  0  0  0  0  0  0  0  0  0  0
   11.2460   38.0704   30.5949 H   0  0  0  0  0  0  0  0  0  0  0  0
   11.6069   37.0400   28.4320 H   0  0  0  0  0  0  0  0  0  0  0  0
   13.7891   35.6051   25.7168 H   0  0  0  0  0  0  0  0  0  0  0  0
   13.5215   37.9068   24.6309 H   0  0  0  0  0  0  0  0  0  0  0  0
   14.4805   39.0653   25.6001 H   0  0  0  0  0  0  0  0  0  0  0  0
  1  2  1  0
  2  3  2  0
  3  4  1  0
  4  5  1  0
  6  5  1  0
  6  7  1  0
  7  8  2  0
  7  9  1  0
 10  9  1  6
 10 11  2  0
 10 12  2  0
 10 13  1  0
 13 14  2  0
 14 15  1  0
 15 16  2  0
 16 17  1  0
 17 18  1  0
 13 19  1  0
 17 19  2  0
  6 20  1  0
 20 21  2  0
 21 22  1  0
 21 23  1  0
 23 24  1  0
 24 25  1  0
 25 26  1  0
 23 27  2  0
 27 28  1  0
 28 29  1  0
 29 30  1  0
 30 31  1  0
 20 32  1  0
 28 32  2  0
  4 33  2  0
 33 34  1  0
  2 35  1  0
 34 35  2  0
 35 36  1  0
 36 37  2  0
 36 38  1  0
  1 39  1  0
  3 40  1  0
  5 41  1  0
  6 42  1  6
  9 43  1  0
 14 44  1  0
 15 45  1  0
 16 46  1  0
 18 47  1  0
 18 48  1  0
 19 49  1  0
 25 50  1  6
 25 51  1  0
 26 52  1  6
 26 53  1  0
 26 54  1  0
 27 55  1  0
 30 56  1  1
 30 57  1  0
 31 58  1  6
 31 59  1  0
 31 60  1  0
 32 61  1  0
 33 62  1  0
 34 63  1  0
 37 64  1  0
 38 65  1  0
 38 66  1  0
M  END
