8DKO_TFB_B_2002
     RDKit          3D

 16 16  0  0  0  0  0  0  0  0999 V2000
   17.9887   12.4849   36.3174 O   0  0  0  0  0  0  0  0  0  0  0  0
   18.2344   13.7821   35.8154 C   0  0  2  0  0  0  0  0  0  0  0  0
   19.3582   13.7290   34.8219 C   0  0  0  0  0  0  0  0  0  0  0  0
   20.1836   14.8361   34.6519 O   0  0  0  0  0  0  0  0  0  0  0  0
   18.5625   14.7221   36.9717 C   0  0  1  0  0  0  0  0  0  0  0  0
   18.8556   13.7895   38.1058 C   0  0  1  0  0  0  0  0  0  0  0  0
   18.0931   12.5423   37.7205 C   0  0  2  0  0  0  0  0  0  0  0  0
   19.5791   12.6739   34.1681 O   0  0  0  0  0  0  0  0  0  0  0  0
   17.3187   14.1411   35.2962 H   0  0  0  0  0  0  0  0  0  0  0  0
   19.8209   15.7758   34.7597 H   0  0  0  0  0  0  0  0  0  0  0  0
   19.4230   15.3979   36.7673 H   0  0  0  0  0  0  0  0  0  0  0  0
   17.6701   15.3395   37.2186 H   0  0  0  0  0  0  0  0  0  0  0  0
   19.9457   13.5704   38.1455 H   0  0  0  0  0  0  0  0  0  0  0  0
   18.5139   14.1995   39.0811 H   0  0  0  0  0  0  0  0  0  0  0  0
   18.6163   11.6371   38.0955 H   0  0  0  0  0  0  0  0  0  0  0  0
   17.0712   12.5702   38.1584 H   0  0  0  0  0  0  0  0  0  0  0  0
  1  2  1  0
  2  3  1  0
  3  4  1  0
  2  5  1  0
  5  6  1  0
  1  7  1  0
  6  7  1  0
  3  8  2  0
  2  9  1  6
  4 10  1  0
  5 11  1  6
  5 12  1  0
  6 13  1  1
  6 14  1  0
  7 15  1  1
  7 16  1  0
M  END
