7T0U_E3I_A_204
     RDKit          3D

 48 53  0  0  0  0  0  0  0  0999 V2000
  -38.1152   10.3032   24.9207 C   0  0  0  0  0  0  0  0  0  0  0  0
  -38.4123    9.1873   22.7527 C   0  0  0  0  0  0  0  0  0  0  0  0
  -37.9735    8.0938   21.9023 C   0  0  0  0  0  0  0  0  0  0  0  0
  -38.3156    7.6768   20.5326 C   0  0  0  0  0  0  0  0  0  0  0  0
  -39.2275    8.1450   19.5164 C   0  0  0  0  0  0  0  0  0  0  0  0
  -39.2943    7.4892   18.2855 C   0  0  0  0  0  0  0  0  0  0  0  0
  -40.1434    7.8823   17.3361 C   0  0  0  0  0  0  0  0  0  0  0  0
  -41.0051    8.9579   17.4850 C   0  0  0  0  0  0  0  0  0  0  0  0
  -40.9678    9.6636   18.7155 C   0  0  0  0  0  0  0  0  0  0  0  0
  -41.8363   10.8320   19.0239 C   0  0  0  0  0  0  0  0  0  0  0  0
  -40.0910    9.2173   19.7070 C   0  0  0  0  0  0  0  0  0  0  0  0
  -37.4959    6.5780   20.3396 C   0  0  0  0  0  0  0  0  0  0  0  0
  -35.8313    5.2511   21.4628 C   0  0  0  0  0  0  0  0  0  0  0  0
  -34.9631    5.1126   20.2672 C   0  0  0  0  0  0  0  0  0  0  0  0
  -34.5976    2.6603   20.0959 C   0  0  0  0  0  0  0  0  0  0  0  0
  -33.7136    1.5678   20.2983 C   0  0  0  0  0  0  0  0  0  0  0  0
  -34.1956    0.2322   20.3192 C   0  0  0  0  0  0  0  0  0  0  0  0
  -31.9108   -0.6100   20.7890 C   0  0  1  0  0  0  0  0  0  0  0  0
  -31.7136   -0.0841   22.1899 C   0  0  0  0  0  0  0  0  0  0  0  0
  -31.0763   -1.9219   20.5081 C   0  0  0  0  0  0  0  0  0  0  0  0
  -30.9191   -4.1915   20.8962 C   0  0  1  0  0  0  0  0  0  0  0  0
  -29.4246   -4.1110   21.2109 C   0  0  0  0  0  0  0  0  0  0  0  0
  -30.9678   -5.3839   21.8775 C   0  0  0  0  0  0  0  0  0  0  0  0
  -33.0158   -3.2381   20.8080 C   0  0  0  0  0  0  0  0  0  0  0  0
  -33.8070   -2.0685   21.2388 C   0  0  0  0  0  0  0  0  0  0  0  0
  -36.3416    1.0496   19.9356 C   0  0  0  0  0  0  0  0  0  0  0  0
  -35.9142    2.3809   19.9130 C   0  0  0  0  0  0  0  0  0  0  0  0
  -36.9511    7.2520   22.4033 C   0  0  0  0  0  0  0  0  0  0  0  0
  -36.7599    8.3149   24.3464 C   0  0  0  0  0  0  0  0  0  0  0  0
  -36.1361    8.4022   25.6861 C   0  0  2  0  0  0  0  0  0  0  0  0
  -35.1613    7.4811   25.9007 F   0  0  0  0  0  0  0  0  0  0  0  0
  -36.9141    8.2798   26.7019 F   0  0  0  0  0  0  0  0  0  0  0  0
  -35.4399    9.5833   25.8968 F   0  0  0  0  0  0  0  0  0  0  0  0
  -37.7057    9.2331   24.0020 N   0  0  0  0  0  0  0  0  0  0  0  0
  -43.0619   10.5513   19.5269 N   0  0  0  0  0  0  0  0  0  0  0  0
  -36.7259    6.3256   21.4339 N   0  0  0  0  0  0  0  0  0  0  0  0
  -34.1788    4.0082   20.1756 N   0  0  0  0  0  0  0  0  0  0  0  0
  -33.3670   -0.8112   20.4737 N   0  0  0  0  0  0  0  0  0  0  0  0
  -31.7153   -2.9853   21.3069 N   0  0  0  0  0  0  0  0  0  0  0  0
  -35.5182    0.0165   20.1126 N   0  0  0  0  0  0  0  0  0  0  0  0
  -36.3424    7.3111   23.6052 N   0  0  0  0  0  0  0  0  0  0  0  0
  -39.2506   10.0077   22.5246 O   0  0  0  0  0  0  0  0  0  0  0  0
  -41.8451    9.3262   16.5291 O   0  0  0  0  0  0  0  0  0  0  0  0
  -41.4475   11.9913   18.9200 O   0  0  0  0  0  0  0  0  0  0  0  0
  -29.5215   -5.2842   22.0604 O   0  0  0  0  0  0  0  0  0  0  0  0
  -35.0094    5.9813   19.4096 O   0  0  0  0  0  0  0  0  0  0  0  0
  -40.1447    6.9718   15.8572 Cl  0  0  0  0  0  0  0  0  0  0  0  0
  -37.1097    3.5777   19.7091 Cl  0  0  0  0  0  0  0  0  0  0  0  0
  2  3  1  0
  3  4  1  0
  4  5  1  0
  5  6  2  0
  6  7  1  0
  7  8  2  0
  8  9  1  0
  9 10  1  0
  9 11  2  0
  5 11  1  0
  4 12  2  0
 13 14  1  0
 15 16  2  0
 16 17  1  0
 18 19  1  1
 18 20  1  0
 21 22  1  0
 21 23  1  0
 24 25  1  0
 15 27  1  0
 26 27  2  0
  3 28  2  0
 29 30  1  0
 30 31  1  6
 30 32  1  0
 30 33  1  0
  2 34  1  0
  1 34  1  0
 29 34  1  0
 10 35  1  0
 12 36  1  0
 13 36  1  0
 28 36  1  0
 14 37  1  0
 15 37  1  0
 17 38  1  0
 18 38  1  0
 25 38  1  0
 20 39  1  0
 24 39  1  0
 21 39  1  1
 26 40  1  0
 17 40  2  0
 28 41  1  0
 29 41  2  0
  2 42  2  0
  8 43  1  0
 10 44  2  0
 22 45  1  0
 23 45  1  0
 14 46  2  0
  7 47  1  0
 27 48  1  0
M  END
