8D39_QDB_A_501
     RDKit          3D

 17 18  0  0  0  0  0  0  0  0999 V2000
   -0.4835    0.3618   17.8933 C   0  0  0  0  0  0  0  0  0  0  0  0
    0.7340   -0.2972   18.0043 C   0  0  0  0  0  0  0  0  0  0  0  0
    0.7961   -1.6149   18.4504 C   0  0  0  0  0  0  0  0  0  0  0  0
   -0.3504   -2.3174   18.8018 C   0  0  0  0  0  0  0  0  0  0  0  0
   -1.5607   -1.6154   18.6953 C   0  0  0  0  0  0  0  0  0  0  0  0
   -1.6273   -0.3067   18.2511 C   0  0  0  0  0  0  0  0  0  0  0  0
   -0.3386   -3.7489   19.2943 C   0  0  0  0  0  0  0  0  0  0  0  0
   -1.5686   -4.4480   19.6729 C   0  0  0  0  0  0  0  0  0  0  0  0
   -2.6538   -4.5494   18.7969 C   0  0  0  0  0  0  0  0  0  0  0  0
   -3.8318   -5.1478   19.1678 C   0  0  0  0  0  0  0  0  0  0  0  0
   -3.9936   -5.6446   20.4531 C   0  0  0  0  0  0  0  0  0  0  0  0
   -2.9305   -5.5344   21.3311 C   0  0  0  0  0  0  0  0  0  0  0  0
   -1.7531   -4.9428   20.9514 C   0  0  0  0  0  0  0  0  0  0  0  0
   -5.2976   -6.2531   20.9129 C   0  0  0  0  0  0  0  0  0  0  0  0
    0.7549   -4.2581   19.4324 O   0  0  0  0  0  0  0  0  0  0  0  0
   -5.3851   -6.4058   22.1394 O   0  0  0  0  0  0  0  0  0  0  0  0
   -6.1913   -6.4474   20.0637 O   0  0  0  0  0  0  0  0  0  0  0  0
  1  2  2  0
  2  3  1  0
  3  4  2  0
  4  5  1  0
  5  6  2  0
  1  6  1  0
  4  7  1  0
  7  8  1  0
  8  9  2  0
  9 10  1  0
 10 11  2  0
 11 12  1  0
 12 13  2  0
  8 13  1  0
 11 14  1  0
  7 15  2  0
 14 16  2  0
 14 17  1  0
M  END
