7T3E_SLB_A_301
     RDKit          3D

 40 40  0  0  0  0  0  0  0  0999 V2000
   18.9187  -37.0039  -10.4701 C   0  0  0  0  0  0  0  0  0  0  0  0
   20.1379  -36.2581  -10.9481 C   0  0  1  0  0  0  0  0  0  0  0  0
   21.3653  -36.8192  -10.2011 C   0  0  2  0  0  0  0  0  0  0  0  0
   22.6250  -36.0107  -10.5341 C   0  0  1  0  0  0  0  0  0  0  0  0
   22.3575  -34.5160  -10.3068 C   0  0  2  0  0  0  0  0  0  0  0  0
   21.0798  -34.0934  -11.0750 C   0  0  2  0  0  0  0  0  0  0  0  0
   20.7541  -32.5919  -10.8529 C   0  0  1  0  0  0  0  0  0  0  0  0
   19.6696  -32.0800  -11.8361 C   0  0  1  0  0  0  0  0  0  0  0  0
   19.1373  -30.6919  -11.4360 C   0  0  1  0  0  0  0  0  0  0  0  0
   24.3845  -33.0237   -9.8813 C   0  0  0  0  0  0  0  0  0  0  0  0
   25.4349  -32.1208  -10.4401 C   0  0  1  0  0  0  0  0  0  0  0  0
   23.5131  -33.7387  -10.7689 N   0  0  0  0  0  0  0  0  0  0  0  0
   17.8872  -36.3734  -10.1116 O   0  0  0  0  0  0  0  0  0  0  0  0
   18.9493  -38.3919  -10.3658 O   0  0  0  0  0  0  0  0  0  0  0  0
   20.2861  -36.4702  -12.3337 O   0  0  0  0  0  0  0  0  0  0  0  0
   23.6889  -36.4243   -9.7167 O   0  0  0  0  0  0  0  0  0  0  0  0
   19.9659  -34.8739  -10.6603 O   0  0  0  0  0  0  0  0  0  0  0  0
   20.3750  -32.3550   -9.5179 O   0  0  0  0  0  0  0  0  0  0  0  0
   20.2027  -32.0206  -13.1349 O   0  0  0  0  0  0  0  0  0  0  0  0
   20.1159  -29.7039  -11.6249 O   0  0  0  0  0  0  0  0  0  0  0  0
   24.2541  -33.1262   -8.6315 O   0  0  0  0  0  0  0  0  0  0  0  0
   21.5258  -37.8841  -10.4808 H   0  0  0  0  0  0  0  0  0  0  0  0
   21.1877  -36.7745   -9.1025 H   0  0  0  0  0  0  0  0  0  0  0  0
   22.8899  -36.1734  -11.6062 H   0  0  0  0  0  0  0  0  0  0  0  0
   22.1892  -34.3596   -9.2178 H   0  0  0  0  0  0  0  0  0  0  0  0
   21.2635  -34.2288  -12.1657 H   0  0  0  0  0  0  0  0  0  0  0  0
   21.6810  -32.0102  -11.0478 H   0  0  0  0  0  0  0  0  0  0  0  0
   18.8114  -32.7922  -11.8171 H   0  0  0  0  0  0  0  0  0  0  0  0
   18.2643  -30.4450  -12.0769 H   0  0  0  0  0  0  0  0  0  0  0  0
   18.7705  -30.6988  -10.3835 H   0  0  0  0  0  0  0  0  0  0  0  0
   25.1319  -31.0641  -10.2874 H   0  0  0  0  0  0  0  0  0  0  0  0
   26.4092  -32.2957   -9.9361 H   0  0  0  0  0  0  0  0  0  0  0  0
   25.5549  -32.3136  -11.5267 H   0  0  0  0  0  0  0  0  0  0  0  0
   23.6797  -33.6599  -11.7983 H   0  0  0  0  0  0  0  0  0  0  0  0
   18.1162  -38.9439  -10.5314 H   0  0  0  0  0  0  0  0  0  0  0  0
   20.0449  -35.6201  -12.7879 H   0  0  0  0  0  0  0  0  0  0  0  0
   23.7969  -37.4007   -9.8602 H   0  0  0  0  0  0  0  0  0  0  0  0
   19.4333  -32.6515   -9.4144 H   0  0  0  0  0  0  0  0  0  0  0  0
   19.4351  -31.9268  -13.7579 H   0  0  0  0  0  0  0  0  0  0  0  0
   20.9704  -30.0751  -11.2826 H   0  0  0  0  0  0  0  0  0  0  0  0
  1  2  1  0
  2  3  1  0
  3  4  1  0
  4  5  1  0
  5  6  1  0
  6  7  1  0
  7  8  1  0
  8  9  1  0
 10 11  1  0
  5 12  1  0
 10 12  1  0
  1 13  2  0
  1 14  1  0
  2 15  1  6
  4 16  1  0
  2 17  1  0
  6 17  1  0
  7 18  1  0
  8 19  1  0
  9 20  1  0
 10 21  2  0
  3 22  1  6
  3 23  1  0
  4 24  1  6
  5 25  1  1
  6 26  1  6
  7 27  1  6
  8 28  1  6
  9 29  1  6
  9 30  1  0
 11 31  1  6
 11 32  1  0
 11 33  1  0
 12 34  1  0
 14 35  1  0
 15 36  1  0
 16 37  1  0
 18 38  1  0
 19 39  1  0
 20 40  1  0
M  END
