1Q41_IXM_A_451
     RDKit          3D

 32 35  0  0  0  0  0  0  0  0999 V2000
    4.0459    0.3476   -1.2450 C   0  0  0  0  0  0  0  0  0  0  0  0
    3.9741    0.2078    0.2123 C   0  0  0  0  0  0  0  0  0  0  0  0
    2.7757    0.6476   -1.6924 C   0  0  0  0  0  0  0  0  0  0  0  0
    1.8336    0.7321   -0.6294 N   0  0  0  0  0  0  0  0  0  0  0  0
    2.5098    0.8533   -3.0458 C   0  0  0  0  0  0  0  0  0  0  0  0
    3.5721    0.7433   -3.9577 C   0  0  0  0  0  0  0  0  0  0  0  0
    4.8711    0.4392   -3.5043 C   0  0  0  0  0  0  0  0  0  0  0  0
    5.1193    0.2399   -2.1355 C   0  0  0  0  0  0  0  0  0  0  0  0
    2.5772    0.5130    0.5761 C   0  0  0  0  0  0  0  0  0  0  0  0
    2.0329    0.5651    1.8090 C   0  0  0  0  0  0  0  0  0  0  0  0
    0.6011    0.4632    2.1399 C   0  0  0  0  0  0  0  0  0  0  0  0
    0.4043    0.3643    3.5449 N   0  0  0  0  0  0  0  0  0  0  0  0
    1.7065    0.4625    4.1032 C   0  0  0  0  0  0  0  0  0  0  0  0
    2.6875    0.6043    3.1326 C   0  0  0  0  0  0  0  0  0  0  0  0
    2.0018    0.5506    5.4630 C   0  0  0  0  0  0  0  0  0  0  0  0
    3.3259    0.8147    5.8427 C   0  0  0  0  0  0  0  0  0  0  0  0
    4.3134    1.0343    4.8646 C   0  0  0  0  0  0  0  0  0  0  0  0
    3.9920    0.9611    3.4992 C   0  0  0  0  0  0  0  0  0  0  0  0
   -0.3460    0.4075    1.3126 O   0  0  0  0  0  0  0  0  0  0  0  0
    4.8235   -0.4158    0.9690 N   0  0  0  0  0  0  0  0  0  0  0  0
    6.0397   -0.8592    0.5059 O   0  0  0  0  0  0  0  0  0  0  0  0
    0.8485    1.0619   -0.7233 H   0  0  0  0  0  0  0  0  0  0  0  0
    1.5104    1.0922   -3.3855 H   0  0  0  0  0  0  0  0  0  0  0  0
    3.3927    0.8976   -5.0138 H   0  0  0  0  0  0  0  0  0  0  0  0
    5.6843    0.3636   -4.2145 H   0  0  0  0  0  0  0  0  0  0  0  0
    6.1222    0.0261   -1.7958 H   0  0  0  0  0  0  0  0  0  0  0  0
   -0.5044    0.3029    4.0557 H   0  0  0  0  0  0  0  0  0  0  0  0
    1.2240    0.4443    6.2080 H   0  0  0  0  0  0  0  0  0  0  0  0
    3.5802    0.8911    6.8919 H   0  0  0  0  0  0  0  0  0  0  0  0
    5.3198    1.2939    5.1668 H   0  0  0  0  0  0  0  0  0  0  0  0
    4.7353    1.2371    2.7681 H   0  0  0  0  0  0  0  0  0  0  0  0
    6.6736   -1.3408    1.1306 H   0  0  0  0  0  0  0  0  0  0  0  0
  1  2  1  0
  1  3  4  0
  3  4  1  0
  3  5  4  0
  5  6  4  0
  6  7  4  0
  1  8  4  0
  7  8  4  0
  2  9  1  0
  4  9  1  0
  9 10  2  3
 10 11  1  0
 11 12  1  0
 12 13  1  0
 10 14  1  0
 13 14  4  0
 13 15  4  0
 15 16  4  0
 16 17  4  0
 14 18  4  0
 17 18  4  0
 11 19  2  0
  2 20  2  3
 20 21  1  0
  4 22  1  0
  5 23  1  0
  6 24  1  0
  7 25  1  0
  8 26  1  0
 12 27  1  0
 15 28  1  0
 16 29  1  0
 17 30  1  0
 18 31  1  0
 21 32  1  0
M  END
