7OCB_V88_B_301
     RDKit          3D

 41 45  0  0  0  0  0  0  0  0999 V2000
   -6.7649  -38.0009  -13.4410 N   0  0  0  0  0  0  0  0  0  0  0  0
   -1.8341  -38.6509   -8.0457 N   0  0  0  0  0  0  0  0  0  0  0  0
   -5.1170  -38.6493   -9.6910 C   0  0  0  0  0  0  0  0  0  0  0  0
   -5.2214  -36.7264  -11.4562 C   0  0  1  0  0  0  0  0  0  0  0  0
   -6.4958  -35.9860  -11.9992 C   0  0  0  0  0  0  0  0  0  0  0  0
   -7.3462  -36.9139  -12.7691 C   0  0  0  0  0  0  0  0  0  0  0  0
   -7.2905  -38.2564  -14.7602 C   0  0  2  0  0  0  0  0  0  0  0  0
   -6.2647  -38.6620  -15.7676 C   0  0  0  0  0  0  0  0  0  0  0  0
   -3.2019  -39.0034   -8.3018 C   0  0  0  0  0  0  0  0  0  0  0  0
   -0.5721  -38.4607  -10.1549 C   0  0  0  0  0  0  0  0  0  0  0  0
   -0.3966  -37.5753  -12.3144 C   0  0  0  0  0  0  0  0  0  0  0  0
   -7.1211  -41.4740   -7.3403 C   0  0  0  0  0  0  0  0  0  0  0  0
   -7.2464  -43.1965   -5.6258 C   0  0  0  0  0  0  0  0  0  0  0  0
   -8.3272  -44.1363   -5.0707 C   0  0  0  0  0  0  0  0  0  0  0  0
   -8.1511  -44.6387   -2.1309 C   0  0  0  0  0  0  0  0  0  0  0  0
  -10.1741  -45.5238   -0.6512 C   0  0  0  0  0  0  0  0  0  0  0  0
  -11.5617  -43.8104    0.2983 C   0  0  0  0  0  0  0  0  0  0  0  0
   -5.6052  -37.8765  -10.7419 N   0  0  0  0  0  0  0  0  0  0  0  0
   -9.6909  -40.4834   -9.7897 C   0  0  0  0  0  0  0  0  0  0  0  0
   -9.0021  -41.1422   -8.7378 O   0  0  0  0  0  0  0  0  0  0  0  0
   -7.6926  -40.8266   -8.4191 C   0  0  0  0  0  0  0  0  0  0  0  0
   -5.3898  -38.2632  -13.3106 C   0  0  0  0  0  0  0  0  0  0  0  0
   -4.5451  -37.1407  -12.7519 C   0  0  0  0  0  0  0  0  0  0  0  0
   -1.1160  -37.7656   -8.9449 C   0  0  0  0  0  0  0  0  0  0  0  0
    1.5900  -38.1299  -11.1537 C   0  0  0  0  0  0  0  0  0  0  0  0
   -5.1546  -40.2021   -7.8197 C   0  0  0  0  0  0  0  0  0  0  0  0
   -5.8124  -41.1339   -7.0527 C   0  0  0  0  0  0  0  0  0  0  0  0
   -7.0386  -39.8997   -9.1809 C   0  0  0  0  0  0  0  0  0  0  0  0
   -9.0082  -43.3714   -3.9716 C   0  0  0  0  0  0  0  0  0  0  0  0
   -9.3617  -44.5930   -1.2642 C   0  0  0  0  0  0  0  0  0  0  0  0
  -11.2638  -45.1278    0.1222 C   0  0  0  0  0  0  0  0  0  0  0  0
  -10.7670  -42.8607   -0.3027 C   0  0  0  0  0  0  0  0  0  0  0  0
   -5.7529  -39.5580   -8.9048 C   0  0  0  0  0  0  0  0  0  0  0  0
   -9.6888  -43.2629   -1.0679 C   0  0  0  0  0  0  0  0  0  0  0  0
   -8.7114  -42.4348   -1.7949 C   0  0  0  0  0  0  0  0  0  0  0  0
   -7.9781  -37.0129  -15.2744 C   0  0  0  0  0  0  0  0  0  0  0  0
   -3.8086  -38.4121   -9.3260 N   0  0  0  0  0  0  0  0  0  0  0  0
    0.2315  -37.6371  -11.0094 N   0  0  0  0  0  0  0  0  0  0  0  0
   -3.8786  -39.8885   -7.5615 N   0  0  0  0  0  0  0  0  0  0  0  0
   -8.1558  -43.3433   -2.8019 N   0  0  0  0  0  0  0  0  0  0  0  0
   -7.8507  -42.4001   -6.6186 O   0  0  0  0  0  0  0  0  0  0  0  0
  4  5  1  0
  1  6  1  0
  5  6  1  0
  1  7  1  0
  7  8  1  6
  2  9  1  0
 13 14  1  0
  4 18  1  1
  3 18  1  0
 19 20  1  0
 12 21  1  0
 20 21  1  0
  1 22  1  0
  4 23  1  0
 22 23  1  0
 10 24  1  0
  2 24  1  0
 26 27  1  0
 12 27  2  0
 21 28  2  0
 14 29  1  0
 15 30  1  0
 16 30  2  0
 17 31  2  0
 16 31  1  0
 17 32  1  0
  3 33  2  0
 26 33  1  0
 28 33  1  0
 32 34  2  0
 30 34  1  0
 34 35  1  0
  7 36  1  0
  9 37  2  0
  3 37  1  0
 25 38  1  0
 11 38  1  0
 10 38  1  0
  9 39  1  0
 26 39  2  0
 35 40  1  0
 29 40  1  0
 15 40  1  0
 12 41  1  0
 13 41  1  0
M  END
$$$$
