8EX2_Q2Q_A_901
     RDKit          3D

 26 29  0  0  0  0  0  0  0  0999 V2000
   22.1930    8.0252   25.0159 C   0  0  0  0  0  0  0  0  0  0  0  0
   23.0596    8.8633   24.3221 C   0  0  0  0  0  0  0  0  0  0  0  0
   22.5175    9.9730   23.7219 C   0  0  0  0  0  0  0  0  0  0  0  0
   21.1796   10.2980   23.7685 C   0  0  0  0  0  0  0  0  0  0  0  0
   20.3356    9.4665   24.4539 C   0  0  0  0  0  0  0  0  0  0  0  0
   20.8595    8.3450   25.0649 C   0  0  0  0  0  0  0  0  0  0  0  0
   20.7115   11.5191   23.0839 C   0  0  0  0  0  0  0  0  0  0  0  0
   21.6136   12.1207   22.0822 C   0  0  0  0  0  0  0  0  0  0  0  0
   20.9655   13.3231   21.5179 C   0  0  0  0  0  0  0  0  0  0  0  0
   18.9768   13.1390   22.8293 C   0  0  0  0  0  0  0  0  0  0  0  0
   17.7743   13.7846   23.0277 C   0  0  0  0  0  0  0  0  0  0  0  0
   17.7910   14.8608   22.1724 C   0  0  0  0  0  0  0  0  0  0  0  0
   16.6870   15.8599   22.0354 C   0  0  2  0  0  0  0  0  0  0  0  0
   16.6959   13.4262   23.9418 C   0  0  0  0  0  0  0  0  0  0  0  0
   17.0391   13.0701   25.2302 C   0  0  0  0  0  0  0  0  0  0  0  0
   16.0257   12.7266   26.1119 C   0  0  0  0  0  0  0  0  0  0  0  0
   14.6954   12.7254   25.7588 C   0  0  0  0  0  0  0  0  0  0  0  0
   14.3729   13.0838   24.4683 C   0  0  0  0  0  0  0  0  0  0  0  0
   15.3656   13.4315   23.5671 C   0  0  0  0  0  0  0  0  0  0  0  0
   17.1084   16.8540   21.1528 F   0  0  0  0  0  0  0  0  0  0  0  0
   16.3951   16.4835   23.2141 F   0  0  0  0  0  0  0  0  0  0  0  0
   15.5928   15.2750   21.4390 F   0  0  0  0  0  0  0  0  0  0  0  0
   19.6843   13.7977   21.8968 N   0  0  0  0  0  0  0  0  0  0  0  0
   19.5544   11.9758   23.4041 N   0  0  0  0  0  0  0  0  0  0  0  0
   18.9656   14.8318   21.5062 N   0  0  0  0  0  0  0  0  0  0  0  0
   21.6075   13.9770   20.6276 O   0  0  0  0  0  0  0  0  0  0  0  0
  1  2  2  0
  2  3  1  0
  3  4  2  0
  4  5  1  0
  5  6  2  0
  1  6  1  0
  4  7  1  0
  7  8  1  0
  8  9  1  0
 10 11  2  0
 11 12  1  0
 12 13  1  0
 11 14  1  0
 14 15  2  0
 15 16  1  0
 16 17  2  0
 17 18  1  0
 18 19  2  0
 14 19  1  0
 13 20  1  6
 13 21  1  0
 13 22  1  0
 10 23  1  0
  9 23  1  0
  7 24  2  0
 10 24  1  0
 12 25  2  0
 23 25  1  0
  9 26  2  0
M  END
$$$$
