1IG3_VIB_B_501
     RDKit          3D

 18 19  0  0  0  0  0  0  0  0999 V2000
    8.2532   70.9362    8.1646 C   0  0  0  0  0  0  0  0  0  0  0  0
    6.1691   66.6111    7.4174 N   0  0  0  0  0  0  0  0  0  0  0  0
    8.0551   64.6240   12.1376 C   0  0  0  0  0  0  0  0  0  0  0  0
   11.7128   61.5704   10.8713 O   0  0  0  0  0  0  0  0  0  0  0  0
   10.7328   62.2112   10.1638 C   0  0  0  0  0  0  0  0  0  0  0  0
    9.3882   62.1915   10.9071 C   0  0  0  0  0  0  0  0  0  0  0  0
    6.7824   64.3972    8.6364 C   0  0  0  0  0  0  0  0  0  0  0  0
    7.8829   62.9114    8.5363 S   0  0  0  0  0  0  0  0  0  0  0  0
    8.4374   63.0828   10.2149 C   0  0  0  0  0  0  0  0  0  0  0  0
    7.7719   64.2048   10.6944 C   0  0  0  0  0  0  0  0  0  0  0  0
    6.9626   64.8475    9.9246 N   0  0  0  0  0  0  0  0  0  0  0  0
    6.2105   66.0540   10.3353 C   0  0  0  0  0  0  0  0  0  0  0  0
    6.6931   67.5397    8.3486 C   0  0  0  0  0  0  0  0  0  0  0  0
    7.1790   68.7083    7.8371 N   0  0  0  0  0  0  0  0  0  0  0  0
    7.7099   69.6458    8.6520 C   0  0  0  0  0  0  0  0  0  0  0  0
    7.7515   69.4084    9.9740 N   0  0  0  0  0  0  0  0  0  0  0  0
    7.2747   68.2542   10.5093 C   0  0  0  0  0  0  0  0  0  0  0  0
    6.7179   67.2609    9.6961 C   0  0  0  0  0  0  0  0  0  0  0  0
  5  4  1  1
  5  6  1  0
  7  8  1  0
  6  9  1  6
  8  9  1  0
  3 10  1  6
  9 10  2  0
  7 11  2  0
 10 11  1  0
 11 12  1  0
  2 13  1  0
 13 14  2  0
  1 15  1  6
 14 15  1  0
 15 16  2  0
 16 17  1  0
 12 18  1  6
 13 18  1  0
 17 18  2  0
M  CHG  1  11   1
M  END
$$$$
