7SNE_9XR_C_201
     RDKit          3D

 45 49  0  0  0  0  0  0  0  0999 V2000
   10.0255   26.1335   32.3345 O   0  0  0  0  0  0  0  0  0  0  0  0
    9.8701   27.2685   32.8028 C   0  0  0  0  0  0  0  0  0  0  0  0
    8.6797   27.6923   33.1986 N   0  0  0  0  0  0  0  0  0  0  0  0
   11.0736   28.1457   32.8984 C   0  0  0  0  0  0  0  0  0  0  0  0
   11.0114   29.3786   33.5405 C   0  0  0  0  0  0  0  0  0  0  0  0
   12.2580   27.7106   32.3283 C   0  0  0  0  0  0  0  0  0  0  0  0
   13.3910   28.4946   32.4139 C   0  0  0  0  0  0  0  0  0  0  0  0
   13.3417   29.7173   33.0759 C   0  0  0  0  0  0  0  0  0  0  0  0
   12.1509   30.1462   33.6557 C   0  0  0  0  0  0  0  0  0  0  0  0
   10.9205   31.9975   34.7232 C   0  0  1  0  0  0  0  0  0  0  0  0
   10.6831   31.5618   36.0646 O   0  0  0  0  0  0  0  0  0  0  0  0
   10.9124   33.5348   34.7651 C   0  0  2  0  0  0  0  0  0  0  0  0
   12.1681   34.1439   34.5757 O   0  0  0  0  0  0  0  0  0  0  0  0
   10.4135   33.8664   36.1543 C   0  0  2  0  0  0  0  0  0  0  0  0
   11.4829   34.2175   37.0161 O   0  0  0  0  0  0  0  0  0  0  0  0
    9.8291   32.5590   36.6290 C   0  0  1  0  0  0  0  0  0  0  0  0
    8.4025   32.3840   36.1174 C   0  0  0  0  0  0  0  0  0  0  0  0
    7.4867   32.4904   37.1957 O   0  0  0  0  0  0  0  0  0  0  0  0
    6.1397   31.6306   37.1749 P   0  0  1  0  0  0  0  0  0  0  0  0
    6.0600   30.7664   35.9542 O   0  0  0  0  0  0  0  0  0  0  0  0
    6.0138   31.0005   38.5387 O   0  0  0  0  0  0  0  0  0  0  0  0
    5.1052   32.8372   37.0517 O   0  0  0  0  0  0  0  0  0  0  0  0
    3.4887   32.8844   37.1891 P   0  0  2  0  0  0  0  0  0  0  0  0
    2.9254   31.6001   36.6588 O   0  0  0  0  0  0  0  0  0  0  0  0
    3.0428   34.1751   36.5572 O   0  0  0  0  0  0  0  0  0  0  0  0
    3.2381   32.8930   38.7774 O   0  0  0  0  0  0  0  0  0  0  0  0
    2.5847   33.9724   39.4210 C   0  0  0  0  0  0  0  0  0  0  0  0
    1.4114   33.3951   40.1921 C   0  0  2  0  0  0  0  0  0  0  0  0
    1.4667   31.8921   40.4627 C   0  0  1  0  0  0  0  0  0  0  0  0
    2.2541   31.5066   41.5885 O   0  0  0  0  0  0  0  0  0  0  0  0
    0.0177   31.5890   40.7547 C   0  0  1  0  0  0  0  0  0  0  0  0
   -0.3925   32.1059   42.0325 O   0  0  0  0  0  0  0  0  0  0  0  0
   -0.6641   32.4429   39.7198 C   0  0  1  0  0  0  0  0  0  0  0  0
    0.1811   33.5923   39.4726 O   0  0  0  0  0  0  0  0  0  0  0  0
   -0.9579   31.8571   38.3930 N   0  0  0  0  0  0  0  0  0  0  0  0
   -1.8102   30.8663   38.1941 C   0  0  0  0  0  0  0  0  0  0  0  0
   -1.8894   30.7321   36.7447 C   0  0  0  0  0  0  0  0  0  0  0  0
   -1.1311   31.6822   36.1753 N   0  0  0  0  0  0  0  0  0  0  0  0
   -0.5745   32.3530   37.1930 C   0  0  0  0  0  0  0  0  0  0  0  0
   -2.4830   30.0228   39.0062 N   0  0  0  0  0  0  0  0  0  0  0  0
   -3.2409   29.0873   38.4352 C   0  0  0  0  0  0  0  0  0  0  0  0
   -3.3699   28.9129   37.1058 N   0  0  0  0  0  0  0  0  0  0  0  0
   -2.7391   29.6826   36.2128 C   0  0  0  0  0  0  0  0  0  0  0  0
   -2.8684   29.4872   34.8990 N   0  0  0  0  0  0  0  0  0  0  0  0
   12.1313   31.4076   34.2015 N   0  0  0  0  0  0  0  0  0  0  0  0
  1  2  2  0
  2  3  1  0
  2  4  1  0
  4  5  2  0
  4  6  1  0
  6  7  2  0
  7  8  1  0
  8  9  2  0
  5  9  1  0
 10 11  1  0
 10 12  1  0
 12 13  1  1
 12 14  1  0
 14 15  1  1
 11 16  1  0
 14 16  1  0
 16 17  1  6
 17 18  1  0
 18 19  1  0
 19 20  1  6
 19 21  2  0
 19 22  1  0
 22 23  1  0
 23 24  1  6
 23 25  2  0
 23 26  1  0
 26 27  1  0
 28 27  1  6
 28 29  1  0
 29 30  1  1
 29 31  1  0
 31 32  1  1
 31 33  1  0
 28 34  1  0
 33 34  1  0
 33 35  1  6
 35 36  1  0
 36 37  2  0
 37 38  1  0
 35 39  1  0
 38 39  2  0
 36 40  1  0
 40 41  2  0
 41 42  1  0
 37 43  1  0
 42 43  2  0
 43 44  1  0
 10 45  1  1
  9 45  1  0
M  END
