
     RDKit          3D

 27 29  0  0  0  0  0  0  0  0999 V2000
  -39.1266   40.9723   29.2594 C   0  0  0  0  0  0  0  0  0  0  0  0
  -37.3807   39.2622   29.8817 N   0  0  0  0  0  0  0  0  0  0  0  0
  -38.9737   40.7087   28.0714 O   0  0  0  0  0  0  0  0  0  0  0  0
  -41.4512   42.2415   28.7911 S   0  0  0  0  0  6  0  0  0  0  0  0
  -42.1841   45.1996   20.2136 N   0  0  0  0  0  0  0  0  0  0  0  0
  -41.1906   45.9978   20.6623 C   0  0  0  0  0  0  0  0  0  0  0  0
  -40.5917   45.9903   21.8707 N   0  0  0  0  0  0  0  0  0  0  0  0
  -41.1098   45.0316   22.6541 C   0  0  0  0  0  0  0  0  0  0  0  0
  -42.1270   44.1471   22.3365 C   0  0  0  0  0  0  0  0  0  0  0  0
  -42.6836   44.2627   21.0518 C   0  0  0  0  0  0  0  0  0  0  0  0
  -43.7104   43.4484   20.5907 N   0  0  0  0  0  0  0  0  0  0  0  0
  -42.3820   43.2971   23.3927 N   0  0  0  0  0  0  0  0  0  0  0  0
  -41.5335   43.6633   24.3316 C   0  0  0  0  0  0  0  0  0  0  0  0
  -40.7579   44.7222   23.9403 N   0  0  0  0  0  0  0  0  0  0  0  0
  -38.2295   40.3706   30.3475 C   0  0  0  0  0  0  0  0  0  0  0  0
  -39.7282   45.4043   24.7050 C   0  0  1  0  0  0  0  0  0  0  0  0
  -42.3795   42.9331   29.6553 O   0  0  0  0  0  0  0  0  0  0  0  0
  -40.2541   46.6055   25.4977 C   0  0  2  0  0  0  0  0  0  0  0  0
  -39.2360   47.6157   25.6245 O   0  0  0  0  0  0  0  0  0  0  0  0
  -41.8387   41.0397   28.0888 O   0  0  0  0  0  0  0  0  0  0  0  0
  -40.5218   46.0019   26.8674 C   0  0  2  0  0  0  0  0  0  0  0  0
  -40.5199   47.0263   27.8552 O   0  0  0  0  0  0  0  0  0  0  0  0
  -40.1441   41.8244   29.7084 N   0  0  0  0  0  0  0  0  0  0  0  0
  -39.3563   45.0202   26.9842 C   0  0  2  0  0  0  0  0  0  0  0  0
  -39.1623   44.4720   25.6666 O   0  0  0  0  0  0  0  0  0  0  0  0
  -39.6053   43.8913   27.9789 C   0  0  0  0  0  0  0  0  0  0  0  0
  -40.8564   43.2897   27.7098 O   0  0  0  0  0  0  0  0  0  0  0  0
  1  3  2  0
  5  6  4  0
  6  7  4  0
  7  8  4  0
  8  9  4  0
  9 10  4  0
  5 10  4  0
 10 11  1  0
  9 12  4  0
 12 13  4  0
 13 14  4  0
  8 14  4  0
  2 15  1  0
  1 15  1  0
 16 14  1  1
  4 17  2  0
 16 18  1  0
 18 19  1  1
  4 20  2  0
 18 21  1  0
 21 22  1  1
  1 23  1  0
  4 23  1  0
 21 24  1  0
 24 25  1  0
 16 25  1  0
 24 26  1  1
  4 27  1  0
 26 27  1  0
M  END
