@<TRIPOS>MOLECULE
1T46_STI_A_3
 68 72 0 0 0
SMALL
GASTEIGER

@<TRIPOS>ATOM
      1 C          32.6960   24.7000   47.5410 C.ar    1  UNL1       -0.0430
      2 C          31.8180   25.4090   46.7190 C.ar    1  UNL1       -0.0497
      3 C          30.6070   24.8220   46.3550 C.ar    1  UNL1        0.0186
      4 C          30.2890   23.5400   46.7930 C.ar    1  UNL1        0.0367
      5 N          31.1560   22.8770   47.5750 N.ar    1  UNL1       -0.2626
      6 C          32.3300   23.4240   47.9550 C.ar    1  UNL1        0.0276
      7 C          29.6570   25.5420   45.4790 C.ar    1  UNL1        0.0775
      8 C          29.9720   26.7830   44.9260 C.ar    1  UNL1       -0.0174
      9 C          29.0340   27.3880   44.0930 C.ar    1  UNL1        0.0332
     10 N          27.8540   26.7890   43.8490 N.ar    1  UNL1       -0.2226
     11 C          27.5660   25.5940   44.4210 C.ar    1  UNL1        0.2200
     12 N          28.4650   24.9750   45.2160 N.ar    1  UNL1       -0.2142
     13 N          26.4040   24.9540   44.2010 N.pl3   1  UNL1       -0.2833
     14 C          25.3470   25.5110   43.5600 C.ar    1  UNL1        0.0383
     15 C          24.2990   26.0650   44.2940 C.ar    1  UNL1       -0.0291
     16 C          23.2070   26.6100   43.6280 C.ar    1  UNL1       -0.0553
     17 C          23.1490   26.6030   42.2330 C.ar    1  UNL1       -0.0401
     18 C          24.1950   26.0540   41.4950 C.ar    1  UNL1        0.0354
     19 C          25.2830   25.4900   42.1650 C.ar    1  UNL1       -0.0190
     20 N          24.0610   26.0500   40.0970 N.am    1  UNL1       -0.2814
     21 C          24.9820   25.6240   39.2380 C.2     1  UNL1        0.2483
     22 C          24.6520   25.6310   37.7790 C.ar    1  UNL1        0.0370
     23 C          25.4430   24.8950   36.8960 C.ar    1  UNL1       -0.0493
     24 C          25.1350   24.8970   35.5390 C.ar    1  UNL1       -0.0566
     25 C          24.0400   25.6290   35.0810 C.ar    1  UNL1       -0.0333
     26 C          23.2420   26.3570   35.9610 C.ar    1  UNL1       -0.0566
     27 C          23.5530   26.3490   37.3180 C.ar    1  UNL1       -0.0493
     28 C          23.7080   25.6150   33.6100 C.3     1  UNL1        0.0241
     29 N          23.6120   26.9460   33.0270 N.3     1  UNL1       -0.2957
     30 C          24.7780   27.8090   33.1870 C.3     1  UNL1        0.0120
     31 C          24.4070   29.2250   32.7690 C.3     1  UNL1        0.0114
     32 N          23.8580   29.1530   31.4220 N.3     1  UNL1       -0.3029
     33 C          23.8300   30.4370   30.7290 C.3     1  UNL1       -0.0127
     34 C          22.6960   28.3020   31.1910 C.3     1  UNL1        0.0114
     35 C          22.9660   26.9000   31.7180 C.3     1  UNL1        0.0120
     36 O          26.0670   25.2150   39.5910 O.2     1  UNL1       -0.2699
     37 C          24.3250   26.0840   45.8060 C.3     1  UNL1       -0.0380
     38 H          33.5951   25.1130   47.8343 H       1  UNL1        0.0633
     39 H          32.0621   26.3546   46.3854 H       1  UNL1        0.0625
     40 H          29.3951   23.1029   46.5193 H       1  UNL1        0.0836
     41 H          32.9669   22.8860   48.5632 H       1  UNL1        0.0829
     42 H          30.8748   27.2402   45.1284 H       1  UNL1        0.0654
     43 H          29.2451   28.3009   43.6604 H       1  UNL1        0.0831
     44 H          26.3157   24.0281   44.5238 H       1  UNL1        0.1550
     45 H          22.4321   27.0236   44.1698 H       1  UNL1        0.0621
     46 H          22.3310   27.0046   41.7486 H       1  UNL1        0.0636
     47 H          26.0463   25.0539   41.6245 H       1  UNL1        0.0655
     48 H          23.2164   26.3903   39.7227 H       1  UNL1        0.1551
     49 H          26.2491   24.3541   37.2462 H       1  UNL1        0.0625
     50 H          25.7140   24.3595   34.8750 H       1  UNL1        0.0621
     51 H          22.4327   26.8940   35.6122 H       1  UNL1        0.0621
     52 H          22.9670   26.8769   37.9835 H       1  UNL1        0.0625
     53 H          22.7693   25.1185   33.4787 H       1  UNL1        0.0476
     54 H          24.5067   25.1077   33.1103 H       1  UNL1        0.0476
     55 H          25.5767   27.4508   32.5716 H       1  UNL1        0.0439
     56 H          25.0937   27.8046   34.2094 H       1  UNL1        0.0439
     57 H          25.2769   29.8480   32.7764 H       1  UNL1        0.0439
     58 H          23.6917   29.6431   33.4461 H       1  UNL1        0.0439
     59 H          24.7190   30.9861   30.9594 H       1  UNL1        0.0391
     60 H          22.9738   30.9949   31.0462 H       1  UNL1        0.0391
     61 H          23.7767   30.2714   29.6732 H       1  UNL1        0.0391
     62 H          22.4951   28.2535   30.1411 H       1  UNL1        0.0439
     63 H          21.8513   28.7135   31.7029 H       1  UNL1        0.0439
     64 H          22.0380   26.3744   31.8045 H       1  UNL1        0.0439
     65 H          23.6191   26.3996   31.0340 H       1  UNL1        0.0439
     66 H          25.2289   25.6285   46.1529 H       1  UNL1        0.0278
     67 H          23.4841   25.5410   46.1840 H       1  UNL1        0.0278
     68 H          24.2804   27.0959   46.1508 H       1  UNL1        0.0278
@<TRIPOS>BOND
     1     1     2   ar
     2     2     3   ar
     3     3     4   ar
     4     4     5   ar
     5     1     6   ar
     6     5     6   ar
     7     3     7    1
     8     7     8   ar
     9     8     9   ar
    10     9    10   ar
    11    10    11   ar
    12     7    12   ar
    13    11    12   ar
    14    11    13    1
    15    13    14    1
    16    14    15   ar
    17    15    16   ar
    18    16    17   ar
    19    17    18   ar
    20    14    19   ar
    21    18    19   ar
    22    18    20    1
    23    20    21   am
    24    21    22    1
    25    22    23   ar
    26    23    24   ar
    27    24    25   ar
    28    25    26   ar
    29    22    27   ar
    30    26    27   ar
    31    25    28    1
    32    28    29    1
    33    29    30    1
    34    30    31    1
    35    31    32    1
    36    32    33    1
    37    32    34    1
    38    29    35    1
    39    34    35    1
    40    21    36    2
    41    15    37    1
    42     1    38    1
    43     2    39    1
    44     4    40    1
    45     6    41    1
    46     8    42    1
    47     9    43    1
    48    13    44    1
    49    16    45    1
    50    17    46    1
    51    19    47    1
    52    20    48    1
    53    23    49    1
    54    24    50    1
    55    26    51    1
    56    27    52    1
    57    28    53    1
    58    28    54    1
    59    30    55    1
    60    30    56    1
    61    31    57    1
    62    31    58    1
    63    33    59    1
    64    33    60    1
    65    33    61    1
    66    34    62    1
    67    34    63    1
    68    35    64    1
    69    35    65    1
    70    37    66    1
    71    37    67    1
    72    37    68    1
