1T46_STI_A_3
     RDKit          3D

 68 72  0  0  0  0  0  0  0  0999 V2000
   -0.0475   -3.0952    4.8230 C   0  0  0  0  0  0  0  0  0  0  0  0
   -0.6783   -4.1003    4.0869 C   0  0  0  0  0  0  0  0  0  0  0  0
   -0.1020   -4.5731    2.8931 C   0  0  0  0  0  0  0  0  0  0  0  0
    1.1078   -3.9928    2.4689 C   0  0  0  0  0  0  0  0  0  0  0  0
    1.6999   -3.0150    3.2053 N   0  0  0  0  0  0  0  0  0  0  0  0
    1.1543   -2.5603    4.3624 C   0  0  0  0  0  0  0  0  0  0  0  0
   -0.7589   -5.6144    2.0598 C   0  0  0  0  0  0  0  0  0  0  0  0
   -1.6664   -6.5425    2.5945 C   0  0  0  0  0  0  0  0  0  0  0  0
   -2.2513   -7.4768    1.7391 C   0  0  0  0  0  0  0  0  0  0  0  0
   -1.9413   -7.4799    0.4172 N   0  0  0  0  0  0  0  0  0  0  0  0
   -1.0614   -6.5806   -0.0946 C   0  0  0  0  0  0  0  0  0  0  0  0
   -0.4739   -5.6730    0.7309 N   0  0  0  0  0  0  0  0  0  0  0  0
   -0.7393   -6.6140   -1.4929 N   0  0  0  0  0  0  0  0  0  0  0  0
    0.0677   -5.6126   -2.1436 C   0  0  0  0  0  0  0  0  0  0  0  0
    1.0277   -5.9797   -3.1144 C   0  0  0  0  0  0  0  0  0  0  0  0
    1.7945   -4.9825   -3.7395 C   0  0  0  0  0  0  0  0  0  0  0  0
    1.6333   -3.6398   -3.3937 C   0  0  0  0  0  0  0  0  0  0  0  0
    0.6932   -3.2666   -2.4216 C   0  0  0  0  0  0  0  0  0  0  0  0
   -0.1112   -4.2513   -1.8358 C   0  0  0  0  0  0  0  0  0  0  0  0
    0.5114   -1.8909   -2.0451 N   0  0  0  0  0  0  0  0  0  0  0  0
    1.5986   -0.9579   -1.9069 C   0  0  0  0  0  0  0  0  0  0  0  0
    1.3413    0.4903   -1.7086 C   0  0  0  0  0  0  0  0  0  0  0  0
    0.1133    1.0683   -2.0800 C   0  0  0  0  0  0  0  0  0  0  0  0
   -0.1217    2.4305   -1.8734 C   0  0  0  0  0  0  0  0  0  0  0  0
    0.8684    3.2426   -1.3013 C   0  0  0  0  0  0  0  0  0  0  0  0
    2.0980    2.6746   -0.9404 C   0  0  0  0  0  0  0  0  0  0  0  0
    2.3349    1.3126   -1.1464 C   0  0  0  0  0  0  0  0  0  0  0  0
    0.6112    4.7053   -1.0517 C   0  0  0  0  0  0  0  0  0  0  0  0
    0.5289    4.9776    0.4005 N   0  0  0  0  0  0  0  0  0  0  0  0
    0.7398    6.4050    0.7184 C   0  0  0  0  0  0  0  0  0  0  0  0
   -0.4913    7.2576    0.3820 C   0  0  0  0  0  0  0  0  0  0  0  0
   -1.6686    6.7457    1.1045 N   0  0  0  0  0  0  0  0  0  0  0  0
   -2.8424    7.5820    0.8141 C   0  0  0  0  0  0  0  0  0  0  0  0
   -1.9346    5.3496    0.7157 C   0  0  0  0  0  0  0  0  0  0  0  0
   -0.7137    4.4683    1.0247 C   0  0  0  0  0  0  0  0  0  0  0  0
    2.7883   -1.3802   -1.8989 O   0  0  0  0  0  0  0  0  0  0  0  0
    1.2447   -7.4215   -3.4840 C   0  0  0  0  0  0  0  0  0  0  0  0
   -0.4931   -2.7266    5.7376 H   0  0  0  0  0  0  0  0  0  0  0  0
   -1.6261   -4.4796    4.4423 H   0  0  0  0  0  0  0  0  0  0  0  0
    1.5880   -4.3176    1.5546 H   0  0  0  0  0  0  0  0  0  0  0  0
    1.6517   -1.7763    4.9206 H   0  0  0  0  0  0  0  0  0  0  0  0
   -1.9079   -6.5673    3.6480 H   0  0  0  0  0  0  0  0  0  0  0  0
   -2.9522   -8.2027    2.1268 H   0  0  0  0  0  0  0  0  0  0  0  0
   -1.0541   -7.4466   -2.0410 H   0  0  0  0  0  0  0  0  0  0  0  0
    2.5253   -5.2437   -4.4949 H   0  0  0  0  0  0  0  0  0  0  0  0
    2.2294   -2.8929   -3.9005 H   0  0  0  0  0  0  0  0  0  0  0  0
   -0.8754   -3.9515   -1.1300 H   0  0  0  0  0  0  0  0  0  0  0  0
   -0.4256   -1.6133   -1.6762 H   0  0  0  0  0  0  0  0  0  0  0  0
   -0.6651    0.4774   -2.5439 H   0  0  0  0  0  0  0  0  0  0  0  0
   -1.0786    2.8497   -2.1574 H   0  0  0  0  0  0  0  0  0  0  0  0
    2.8727    3.2877   -0.4954 H   0  0  0  0  0  0  0  0  0  0  0  0
    3.2917    0.8997   -0.8512 H   0  0  0  0  0  0  0  0  0  0  0  0
    1.4592    5.2676   -1.5026 H   0  0  0  0  0  0  0  0  0  0  0  0
   -0.3037    5.0449   -1.5821 H   0  0  0  0  0  0  0  0  0  0  0  0
    0.9576    6.5029    1.8043 H   0  0  0  0  0  0  0  0  0  0  0  0
    1.6300    6.8013    0.1824 H   0  0  0  0  0  0  0  0  0  0  0  0
   -0.6648    7.2630   -0.7178 H   0  0  0  0  0  0  0  0  0  0  0  0
   -0.2810    8.3029    0.6983 H   0  0  0  0  0  0  0  0  0  0  0  0
   -2.6547    8.6283    1.1370 H   0  0  0  0  0  0  0  0  0  0  0  0
   -3.7235    7.2150    1.3834 H   0  0  0  0  0  0  0  0  0  0  0  0
   -3.0841    7.5774   -0.2718 H   0  0  0  0  0  0  0  0  0  0  0  0
   -2.7955    4.9566    1.3001 H   0  0  0  0  0  0  0  0  0  0  0  0
   -2.2033    5.2756   -0.3613 H   0  0  0  0  0  0  0  0  0  0  0  0
   -0.5695    4.4325    2.1267 H   0  0  0  0  0  0  0  0  0  0  0  0
   -0.9208    3.4254    0.7046 H   0  0  0  0  0  0  0  0  0  0  0  0
    0.3551   -7.8081   -4.0239 H   0  0  0  0  0  0  0  0  0  0  0  0
    1.4114   -8.0261   -2.5670 H   0  0  0  0  0  0  0  0  0  0  0  0
    2.1321   -7.5458   -4.1396 H   0  0  0  0  0  0  0  0  0  0  0  0
  1  2  2  0
  2  3  1  0
  3  4  2  0
  4  5  1  0
  1  6  1  0
  5  6  2  0
  3  7  1  0
  7  8  2  0
  8  9  1  0
  9 10  2  0
 10 11  1  0
  7 12  1  0
 11 12  2  0
 11 13  1  0
 13 14  1  0
 14 15  2  0
 15 16  1  0
 16 17  2  0
 17 18  1  0
 14 19  1  0
 18 19  2  0
 18 20  1  0
 20 21  1  0
 21 22  1  0
 22 23  2  0
 23 24  1  0
 24 25  2  0
 25 26  1  0
 22 27  1  0
 26 27  2  0
 25 28  1  0
 28 29  1  0
 29 30  1  0
 30 31  1  0
 31 32  1  0
 32 33  1  0
 32 34  1  0
 29 35  1  0
 34 35  1  0
 21 36  2  0
 15 37  1  0
  1 38  1  0
  2 39  1  0
  4 40  1  0
  6 41  1  0
  8 42  1  0
  9 43  1  0
 13 44  1  0
 16 45  1  0
 17 46  1  0
 19 47  1  0
 20 48  1  0
 23 49  1  0
 24 50  1  0
 26 51  1  0
 27 52  1  0
 28 53  1  0
 28 54  1  0
 30 55  1  0
 30 56  1  0
 31 57  1  0
 31 58  1  0
 33 59  1  0
 33 60  1  0
 33 61  1  0
 34 62  1  0
 34 63  1  0
 35 64  1  0
 35 65  1  0
 37 66  1  0
 37 67  1  0
 37 68  1  0
M  END
