6YQV_8K2_H_308
     RDKit          3D

 14 14  0  0  0  0  0  0  0  0999 V2000
   11.1377  -11.9057   24.2298 C   0  0  0  0  0  0  0  0  0  0  0  0
    8.6249  -12.6766   23.2728 Cl  0  0  0  0  0  0  0  0  0  0  0  0
   10.3133  -12.2270   23.1603 C   0  0  0  0  0  0  0  0  0  0  0  0
   12.4439  -11.5892   23.8396 C   0  0  0  0  0  0  0  0  0  0  0  0
   11.1910  -12.1235   21.7299 S   0  0  0  0  0  0  0  0  0  0  0  0
   12.6307  -11.6615   22.4661 C   0  0  0  0  0  0  0  0  0  0  0  0
   14.1374  -11.3563   21.6242 S   0  0  2  0  0  6  0  0  0  0  0  0
   14.9208  -10.3082   22.3628 O   0  0  0  0  0  0  0  0  0  0  0  0
   13.8453  -10.8594   20.2360 O   0  0  0  0  0  0  0  0  0  0  0  0
   15.0578  -12.8169   21.5387 N   0  0  0  0  0  0  0  0  0  0  0  0
   10.8066  -11.9027   25.2597 H   0  0  0  0  0  0  0  0  0  0  0  0
   13.2252  -11.3197   24.5380 H   0  0  0  0  0  0  0  0  0  0  0  0
   15.8685  -12.7056   22.1879 H   0  0  0  0  0  0  0  0  0  0  0  0
   15.4508  -12.8736   20.5723 H   0  0  0  0  0  0  0  0  0  0  0  0
  1  3  2  0
  2  3  1  0
  1  4  1  0
  3  5  1  0
  4  6  2  0
  5  6  1  0
  6  7  1  0
  7  8  2  0
  7  9  2  0
  7 10  1  6
  1 11  1  0
  4 12  1  0
 10 13  1  0
 10 14  1  0
M  END
