1MZC_BNE_B_1003
     RDKit          3D

 68 71  0  0  0  0  0  0  0  0999 V2000
   12.4163  136.8433   -4.3512 C   0  0  1  0  0  0  0  0  0  0  0  0
   12.0085  135.4427   -3.6753 C   0  0  0  0  0  0  0  0  0  0  0  0
   11.9529  138.1412   -3.5053 C   0  0  0  0  0  0  0  0  0  0  0  0
   14.0002  136.7964   -4.6042 C   0  0  0  0  0  0  0  0  0  0  0  0
   11.7313  137.0011   -5.7756 C   0  0  0  0  0  0  0  0  0  0  0  0
   13.0124  134.4985   -3.3455 C   0  0  0  0  0  0  0  0  0  0  0  0
   10.6554  135.0648   -3.3482 C   0  0  0  0  0  0  0  0  0  0  0  0
   12.5266  138.4385   -2.2310 N   0  0  0  0  0  0  0  0  0  0  0  0
   11.0756  138.8982   -3.9722 O   0  0  0  0  0  0  0  0  0  0  0  0
   14.9484  136.5844   -3.4008 C   0  0  0  0  0  0  0  0  0  0  0  0
   12.5357  136.5082   -6.9984 C   0  0  0  0  0  0  0  0  0  0  0  0
   12.7446  133.2352   -2.7265 C   0  0  0  0  0  0  0  0  0  0  0  0
   10.3658  133.8048   -2.7321 C   0  0  0  0  0  0  0  0  0  0  0  0
   13.5937  137.7010   -1.5429 C   0  0  0  0  0  0  0  0  0  0  0  0
   12.0578  139.6198   -1.5017 C   0  0  0  0  0  0  0  0  0  0  0  0
   14.8932  137.6850   -2.3395 C   0  0  0  0  0  0  0  0  0  0  0  0
   13.8156  132.3423   -2.4279 O   0  0  0  0  0  0  0  0  0  0  0  0
   11.4082  132.8896   -2.4214 C   0  0  0  0  0  0  0  0  0  0  0  0
   15.0240  132.9275   -1.9870 C   0  0  0  0  0  0  0  0  0  0  0  0
   15.3420  134.3171   -2.1674 C   0  0  0  0  0  0  0  0  0  0  0  0
   15.9497  132.0765   -1.3199 C   0  0  0  0  0  0  0  0  0  0  0  0
   16.5769  134.8175   -1.6850 C   0  0  0  0  0  0  0  0  0  0  0  0
   14.4081  135.2393   -2.7417 C   0  0  0  0  0  0  0  0  0  0  0  0
   17.1968  132.5678   -0.8174 C   0  0  0  0  0  0  0  0  0  0  0  0
   17.4904  133.9597   -1.0188 C   0  0  0  0  0  0  0  0  0  0  0  0
   13.6101  135.9584   -3.1632 N   0  0  0  0  0  0  0  0  0  0  0  0
   18.2093  131.6454   -0.0863 C   0  0  2  0  0  0  0  0  0  0  0  0
   18.5474  132.1136    1.3293 C   0  0  0  0  0  0  0  0  0  0  0  0
   19.5399  131.5260   -0.8996 C   0  0  0  0  0  0  0  0  0  0  0  0
   17.6248  130.3081    0.0517 N   0  0  0  0  0  0  0  0  0  0  0  0
   19.7632  132.6309    1.7406 N   0  0  0  0  0  4  0  0  0  0  0  0
   17.7788  132.1330    2.4948 C   0  0  0  0  0  0  0  0  0  0  0  0
   19.6309  132.8999    3.0617 C   0  0  0  0  0  0  0  0  0  0  0  0
   21.0109  132.8887    1.0370 C   0  0  0  0  0  0  0  0  0  0  0  0
   18.4524  132.6245    3.5777 N   0  0  0  0  0  0  0  0  0  0  0  0
   14.2725  137.7268   -5.0573 H   0  0  0  0  0  0  0  0  0  0  0  0
   14.1383  135.9162   -5.1965 H   0  0  0  0  0  0  0  0  0  0  0  0
   11.5264  138.0411   -5.9218 H   0  0  0  0  0  0  0  0  0  0  0  0
   10.8667  136.3719   -5.7395 H   0  0  0  0  0  0  0  0  0  0  0  0
   13.9929  134.7350   -3.5640 H   0  0  0  0  0  0  0  0  0  0  0  0
    9.8822  135.7140   -3.5619 H   0  0  0  0  0  0  0  0  0  0  0  0
   15.9505  136.5297   -3.7720 H   0  0  0  0  0  0  0  0  0  0  0  0
   14.6274  135.6846   -2.9188 H   0  0  0  0  0  0  0  0  0  0  0  0
   13.4242  137.0954   -7.1010 H   0  0  0  0  0  0  0  0  0  0  0  0
   11.9390  136.6069   -7.8812 H   0  0  0  0  0  0  0  0  0  0  0  0
   12.8010  135.4809   -6.8603 H   0  0  0  0  0  0  0  0  0  0  0  0
    9.3884  133.5583   -2.5111 H   0  0  0  0  0  0  0  0  0  0  0  0
   13.2714  136.6922   -1.3901 H   0  0  0  0  0  0  0  0  0  0  0  0
   13.7860  138.1950   -0.6134 H   0  0  0  0  0  0  0  0  0  0  0  0
   11.2847  140.1019   -2.0629 H   0  0  0  0  0  0  0  0  0  0  0  0
   12.8727  140.2988   -1.3609 H   0  0  0  0  0  0  0  0  0  0  0  0
   11.6735  139.3215   -0.5486 H   0  0  0  0  0  0  0  0  0  0  0  0
   15.0022  138.6310   -2.8275 H   0  0  0  0  0  0  0  0  0  0  0  0
   15.6840  137.4912   -1.6453 H   0  0  0  0  0  0  0  0  0  0  0  0
   11.1918  131.9831   -1.9780 H   0  0  0  0  0  0  0  0  0  0  0  0
   15.7156  131.0792   -1.1953 H   0  0  0  0  0  0  0  0  0  0  0  0
   16.8136  135.8129   -1.8191 H   0  0  0  0  0  0  0  0  0  0  0  0
   18.3835  134.3434   -0.6721 H   0  0  0  0  0  0  0  0  0  0  0  0
   19.9794  132.4954   -1.0090 H   0  0  0  0  0  0  0  0  0  0  0  0
   19.3315  131.1177   -1.8665 H   0  0  0  0  0  0  0  0  0  0  0  0
   20.2192  130.8830   -0.3797 H   0  0  0  0  0  0  0  0  0  0  0  0
   16.7549  130.3701    0.5808 H   0  0  0  0  0  0  0  0  0  0  0  0
   18.2794  129.7000    0.5438 H   0  0  0  0  0  0  0  0  0  0  0  0
   16.7999  131.8086    2.5347 H   0  0  0  0  0  0  0  0  0  0  0  0
   20.4012  133.2937    3.6243 H   0  0  0  0  0  0  0  0  0  0  0  0
   20.9055  132.6085    0.0097 H   0  0  0  0  0  0  0  0  0  0  0  0
   21.7971  132.3168    1.4838 H   0  0  0  0  0  0  0  0  0  0  0  0
   21.2473  133.9303    1.1002 H   0  0  0  0  0  0  0  0  0  0  0  0
  1  2  1  0
  1  3  1  0
  1  4  1  0
  1  5  1  6
  2  6  4  0
  2  7  4  0
  3  8  1  0
  3  9  2  0
  4 10  1  0
  5 11  1  0
  6 12  4  0
  7 13  4  0
  8 14  1  0
  8 15  1  0
 10 16  1  0
 14 16  1  0
 12 17  1  0
 12 18  4  0
 13 18  4  0
 17 19  1  0
 19 20  4  0
 19 21  4  0
 20 22  4  0
 20 23  1  0
 21 24  4  0
 22 25  4  0
 24 25  4  0
 23 26  3  0
 24 27  1  0
 27 28  1  0
 27 29  1  0
 27 30  1  1
 28 31  4  0
 28 32  4  0
 31 33  4  0
 31 34  1  0
 32 35  4  0
 33 35  4  0
  4 36  1  0
  4 37  1  0
  5 38  1  0
  5 39  1  0
  6 40  1  0
  7 41  1  0
 10 42  1  0
 10 43  1  0
 11 44  1  0
 11 45  1  0
 11 46  1  0
 13 47  1  0
 14 48  1  0
 14 49  1  0
 15 50  1  0
 15 51  1  0
 15 52  1  0
 16 53  1  0
 16 54  1  0
 18 55  1  0
 21 56  1  0
 22 57  1  0
 25 58  1  0
 29 59  1  0
 29 60  1  0
 29 61  1  0
 30 62  1  0
 30 63  1  0
 32 64  1  0
 33 65  1  0
 34 66  1  0
 34 67  1  0
 34 68  1  0
M  CHG  1  31   1
M  END
