@<TRIPOS>MOLECULE
1MZC_BNE_B_1003
 68 71 0 0 0
SMALL
GASTEIGER

@<TRIPOS>ATOM
      1 C           2.0387    2.4930   -0.6495 C.3     1  UNL1        0.0718
      2 C           1.7976    2.4242    0.8788 C.ar    1  UNL1       -0.0290
      3 C           0.7195    2.5478   -1.4373 C.2     1  UNL1        0.2258
      4 C           2.8790    3.7415   -1.1074 C.3     1  UNL1       -0.0349
      5 C           2.8820    1.2304   -1.0403 C.3     1  UNL1       -0.0378
      6 C           0.6323    1.8058    1.3973 C.ar    1  UNL1       -0.0152
      7 C           2.7945    2.8125    1.8047 C.ar    1  UNL1       -0.0574
      8 N          -0.2363    3.6290   -1.2743 N.am    1  UNL1       -0.3038
      9 O           0.4951    1.6756   -2.3234 O.2     1  UNL1       -0.2746
     10 C           2.1462    5.0949   -1.2265 C.3     1  UNL1       -0.0504
     11 C           2.2994   -0.1179   -0.5934 C.3     1  UNL1       -0.0640
     12 C           0.4111    1.7186    2.7829 C.ar    1  UNL1        0.1288
     13 C           2.5710    2.7252    3.1801 C.ar    1  UNL1       -0.0580
     14 C          -0.1689    4.6091   -0.1697 C.3     1  UNL1        0.0144
     15 C          -1.3161    3.7457   -2.2638 C.3     1  UNL1        0.0032
     16 C           1.1665    5.3847   -0.0873 C.3     1  UNL1       -0.0371
     17 O          -0.7787    1.1965    3.3070 O.3     1  UNL1       -0.4547
     18 C           1.3747    2.2050    3.6661 C.ar    1  UNL1       -0.0193
     19 C          -1.5147    0.1458    2.7370 C.ar    1  UNL1        0.1461
     20 C          -2.9148    0.1728    2.8097 C.ar    1  UNL1        0.0939
     21 C          -0.8698   -0.9548    2.1419 C.ar    1  UNL1       -0.0128
     22 C          -3.6623   -0.8783    2.2723 C.ar    1  UNL1       -0.0404
     23 C          -3.5950    1.2820    3.4288 C.1     1  UNL1        0.1028
     24 C          -1.6148   -2.0240    1.5953 C.ar    1  UNL1       -0.0185
     25 C          -3.0216   -1.9634    1.6738 C.ar    1  UNL1       -0.0550
     26 N          -4.1392    2.1742    3.9259 N.1     1  UNL1       -0.1907
     27 C          -0.9476   -3.2677    0.9801 C.3     1  UNL1        0.0815
     28 C          -1.4779   -3.4877   -0.4472 C.ar    1  UNL1        0.0621
     29 C          -1.2659   -4.4515    1.9227 C.3     1  UNL1       -0.0372
     30 N           0.5121   -3.0987    0.9181 N.3     1  UNL1       -0.3165
     31 N          -1.4649   -4.6333   -1.1723 N.ar    1  UNL1       -0.3353
     32 C          -1.8839   -2.4723   -1.3006 C.ar    1  UNL1        0.0507
     33 C          -1.9032   -4.2911   -2.4007 C.ar    1  UNL1        0.0959
     34 C          -1.0432   -5.9788   -0.7879 C.3     1  UNL1        0.0130
     35 N          -2.1643   -2.9754   -2.5169 N.ar    1  UNL1       -0.2437
     36 H           3.2807    3.5399   -2.1265 H       1  UNL1        0.0278
     37 H           3.7884    3.8783   -0.4943 H       1  UNL1        0.0278
     38 H           3.0225    1.1944   -2.1434 H       1  UNL1        0.0276
     39 H           3.8990    1.3146   -0.5968 H       1  UNL1        0.0276
     40 H          -0.1269    1.4243    0.7275 H       1  UNL1        0.0657
     41 H           3.7579    3.1780    1.4895 H       1  UNL1        0.0621
     42 H           1.6182    5.1626   -2.2030 H       1  UNL1        0.0266
     43 H           2.9145    5.8986   -1.2388 H       1  UNL1        0.0266
     44 H           2.3471   -0.2233    0.5103 H       1  UNL1        0.0230
     45 H           2.8979   -0.9410   -1.0374 H       1  UNL1        0.0230
     46 H           1.2481   -0.2357   -0.9251 H       1  UNL1        0.0230
     47 H           3.3365    3.0523    3.8733 H       1  UNL1        0.0619
     48 H          -0.9854    5.3570   -0.2642 H       1  UNL1        0.0464
     49 H          -0.3745    4.1049    0.7941 H       1  UNL1        0.0464
     50 H          -0.8819    3.9537   -3.2645 H       1  UNL1        0.0428
     51 H          -1.8942    2.7980   -2.3065 H       1  UNL1        0.0428
     52 H          -2.0271    4.5598   -2.0170 H       1  UNL1        0.0428
     53 H           1.6596    5.1977    0.8900 H       1  UNL1        0.0280
     54 H           0.9391    6.4740   -0.1075 H       1  UNL1        0.0280
     55 H           1.2084    2.1484    4.7345 H       1  UNL1        0.0654
     56 H           0.2105   -0.9768    2.1423 H       1  UNL1        0.0658
     57 H          -4.7447   -0.8615    2.3200 H       1  UNL1        0.0632
     58 H          -3.6268   -2.7673    1.2732 H       1  UNL1        0.0621
     59 H          -2.3188   -4.7868    1.8013 H       1  UNL1        0.0254
     60 H          -1.1173   -4.1535    2.9841 H       1  UNL1        0.0254
     61 H          -0.5886   -5.3120    1.7541 H       1  UNL1        0.0254
     62 H           0.7393   -2.3475    0.2271 H       1  UNL1        0.1194
     63 H           0.9529   -3.9722    0.5496 H       1  UNL1        0.1194
     64 H          -1.9519   -1.4200   -1.0598 H       1  UNL1        0.0848
     65 H          -2.0141   -4.9900   -3.2200 H       1  UNL1        0.1029
     66 H          -0.0062   -5.9589   -0.3962 H       1  UNL1        0.0456
     67 H          -1.7435   -6.3958   -0.0351 H       1  UNL1        0.0456
     68 H          -1.0548   -6.6553   -1.6686 H       1  UNL1        0.0456
@<TRIPOS>BOND
     1     1     2    1
     2     1     3    1
     3     1     4    1
     4     1     5    1
     5     2     6   ar
     6     2     7   ar
     7     3     8   am
     8     3     9    2
     9     4    10    1
    10     5    11    1
    11     6    12   ar
    12     7    13   ar
    13     8    14    1
    14     8    15    1
    15    10    16    1
    16    14    16    1
    17    12    17    1
    18    12    18   ar
    19    13    18   ar
    20    17    19    1
    21    19    20   ar
    22    19    21   ar
    23    20    22   ar
    24    20    23    1
    25    21    24   ar
    26    22    25   ar
    27    24    25   ar
    28    23    26    3
    29    24    27    1
    30    27    28    1
    31    27    29    1
    32    27    30    1
    33    28    31   ar
    34    28    32   ar
    35    31    33   ar
    36    31    34    1
    37    32    35   ar
    38    33    35   ar
    39     4    36    1
    40     4    37    1
    41     5    38    1
    42     5    39    1
    43     6    40    1
    44     7    41    1
    45    10    42    1
    46    10    43    1
    47    11    44    1
    48    11    45    1
    49    11    46    1
    50    13    47    1
    51    14    48    1
    52    14    49    1
    53    15    50    1
    54    15    51    1
    55    15    52    1
    56    16    53    1
    57    16    54    1
    58    18    55    1
    59    21    56    1
    60    22    57    1
    61    25    58    1
    62    29    59    1
    63    29    60    1
    64    29    61    1
    65    30    62    1
    66    30    63    1
    67    32    64    1
    68    33    65    1
    69    34    66    1
    70    34    67    1
    71    34    68    1
