7B2C_TP7_A_1204
     RDKit          3D

 43 42  0  0  0  0  0  0  0  0999 V2000
  -11.1992   -5.5739   31.7428 N   0  0  0  0  0  0  0  0  0  0  0  0
   -8.3753   -9.0634   31.6107 P   0  0  2  0  0  5  0  0  0  0  0  0
   -7.0422   -8.5995   32.1521 O   0  0  0  0  0  0  0  0  0  0  0  0
   -9.1317  -10.0497   32.7602 O   0  0  0  0  0  0  0  0  0  0  0  0
   -8.1204   -9.9484   30.1902 O   0  0  0  0  0  0  0  0  0  0  0  0
   -9.3499   -7.6985   31.2880 O   0  0  0  0  0  0  0  0  0  0  0  0
  -10.7170   -8.0115   31.4942 C   0  0  1  0  0  0  0  0  0  0  0  0
  -13.0404   -7.1067   31.3366 C   0  0  0  0  0  0  0  0  0  0  0  0
  -13.9319   -7.2847   30.2824 O   0  0  0  0  0  0  0  0  0  0  0  0
  -13.4568   -7.1539   32.5249 O   0  0  0  0  0  0  0  0  0  0  0  0
  -11.5929   -6.8124   31.0594 C   0  0  1  0  0  0  0  0  0  0  0  0
  -11.0749   -9.2690   30.6920 C   0  0  2  0  0  0  0  0  0  0  0  0
   -9.8015   -3.7558   31.2805 O   0  0  0  0  0  0  0  0  0  0  0  0
   -9.9046   -4.9824   31.5555 C   0  0  0  0  0  0  0  0  0  0  0  0
   -8.6619   -5.8121   31.7143 C   0  0  2  0  0  0  0  0  0  0  0  0
   -7.5265   -5.0507   32.4222 C   0  0  2  0  0  0  0  0  0  0  0  0
   -6.1097   -5.4988   32.0084 C   0  0  1  0  0  0  0  0  0  0  0  0
   -5.6392   -5.0181   30.6245 C   0  0  2  0  0  0  0  0  0  0  0  0
   -5.4982   -3.4893   30.5336 C   0  0  2  0  0  0  0  0  0  0  0  0
   -4.0349   -3.0509   30.4142 C   0  0  2  0  0  0  0  0  0  0  0  0
   -3.8740   -1.4464   29.5648 S   0  0  0  0  0  0  0  0  0  0  0  0
  -11.8651   -5.1094   32.4009 H   0  0  0  0  0  0  0  0  0  0  0  0
   -9.8281   -9.4752   33.1673 H   0  0  0  0  0  0  0  0  0  0  0  0
   -7.2859  -10.4558   30.3543 H   0  0  0  0  0  0  0  0  0  0  0  0
  -10.9771   -8.2222   32.5606 H   0  0  0  0  0  0  0  0  0  0  0  0
  -13.8226   -8.0556   29.6345 H   0  0  0  0  0  0  0  0  0  0  0  0
  -11.4628   -6.6711   29.9620 H   0  0  0  0  0  0  0  0  0  0  0  0
  -11.2171   -9.0297   29.6174 H   0  0  0  0  0  0  0  0  0  0  0  0
  -12.0044   -9.7287   31.0881 H   0  0  0  0  0  0  0  0  0  0  0  0
  -10.2595  -10.0169   30.7754 H   0  0  0  0  0  0  0  0  0  0  0  0
   -8.3101   -6.1889   30.7298 H   0  0  0  0  0  0  0  0  0  0  0  0
   -8.9280   -6.7014   32.3255 H   0  0  0  0  0  0  0  0  0  0  0  0
   -7.6227   -5.2561   33.5109 H   0  0  0  0  0  0  0  0  0  0  0  0
   -7.6507   -3.9534   32.3130 H   0  0  0  0  0  0  0  0  0  0  0  0
   -5.3894   -5.1325   32.7722 H   0  0  0  0  0  0  0  0  0  0  0  0
   -6.0623   -6.6094   32.0328 H   0  0  0  0  0  0  0  0  0  0  0  0
   -6.3185   -5.3904   29.8341 H   0  0  0  0  0  0  0  0  0  0  0  0
   -4.6482   -5.4827   30.4338 H   0  0  0  0  0  0  0  0  0  0  0  0
   -5.9607   -3.0105   31.4239 H   0  0  0  0  0  0  0  0  0  0  0  0
   -6.0281   -3.1198   29.6322 H   0  0  0  0  0  0  0  0  0  0  0  0
   -3.4720   -3.8121   29.8334 H   0  0  0  0  0  0  0  0  0  0  0  0
   -3.5737   -2.9809   31.4212 H   0  0  0  0  0  0  0  0  0  0  0  0
   -5.2568   -1.3485   29.3175 H   0  0  0  0  0  0  0  0  0  0  0  0
  2  3  2  0
  2  4  1  1
  2  5  1  0
  2  6  1  0
  6  7  1  0
  8  9  1  0
  8 10  2  0
 11  1  1  0
  7 11  1  0
  8 11  1  0
  7 12  1  0
  1 14  1  0
 13 14  2  0
 14 15  1  0
 15 16  1  0
 16 17  1  0
 17 18  1  0
 18 19  1  0
 19 20  1  0
 20 21  1  0
  1 22  1  0
  4 23  1  0
  5 24  1  0
  7 25  1  1
  9 26  1  0
 11 27  1  6
 12 28  1  6
 12 29  1  0
 12 30  1  0
 15 31  1  6
 15 32  1  0
 16 33  1  1
 16 34  1  0
 17 35  1  1
 17 36  1  0
 18 37  1  6
 18 38  1  0
 19 39  1  1
 19 40  1  0
 20 41  1  6
 20 42  1  0
 21 43  1  0
M  END
