7VYJ_CA0_A_702
     RDKit          3D

 26 28  0  0  0  0  0  0  0  0999 V2000
   51.5757  -53.7398   15.8130 N   0  0  0  0  0  0  0  0  0  0  0  0
   51.7101  -55.0253   15.4915 C   0  0  0  0  0  0  0  0  0  0  0  0
   50.7708  -55.6809   14.7949 N   0  0  0  0  0  0  0  0  0  0  0  0
   49.6624  -55.0450   14.3774 C   0  0  0  0  0  0  0  0  0  0  0  0
   49.4932  -53.6964   14.6710 C   0  0  0  0  0  0  0  0  0  0  0  0
   50.5018  -53.0477   15.4191 C   0  0  0  0  0  0  0  0  0  0  0  0
   50.3635  -51.6379   15.7612 N   0  0  0  0  0  0  0  0  0  0  0  0
   48.3179  -53.3122   14.1314 N   0  0  0  0  0  0  0  0  0  0  0  0
   47.7769  -54.3820   13.5404 C   0  0  0  0  0  0  0  0  0  0  0  0
   48.5839  -55.4408   13.6659 N   0  0  0  0  0  0  0  0  0  0  0  0
   45.0977  -57.2381    8.6406 P   0  0  1  0  0  0  0  0  0  0  0  0
   44.4809  -59.7918    9.3817 C   0  0  0  0  0  0  0  0  0  0  0  0
   48.3458  -56.7644   13.1626 C   0  0  1  0  0  0  0  0  0  0  0  0
   45.8120  -56.7804    7.3911 O   0  0  0  0  0  0  0  0  0  0  0  0
   45.0412  -59.7080   10.4563 O   0  0  0  0  0  0  0  0  0  0  0  0
   47.1111  -57.4823   14.0317 C   0  0  2  0  0  0  0  0  0  0  0  0
   47.6103  -57.8407   15.3579 O   0  0  0  0  0  0  0  0  0  0  0  0
   44.1014  -56.1843    9.0190 O   0  0  0  0  0  0  0  0  0  0  0  0
   43.8609  -61.0162    8.8884 N   0  0  0  0  0  0  0  0  0  0  0  0
   46.7461  -58.4860   13.3190 C   0  0  2  0  0  0  0  0  0  0  0  0
   47.5923  -59.6893   13.5847 O   0  0  0  0  0  0  0  0  0  0  0  0
   44.2988  -58.6928    8.5351 O   0  0  0  0  0  0  0  0  0  0  0  0
   47.0291  -58.0361   11.8337 C   0  0  2  0  0  0  0  0  0  0  0  0
   47.8721  -56.7423   11.9726 O   0  0  0  0  0  0  0  0  0  0  0  0
   45.8639  -57.7742   11.1165 C   0  0  0  0  0  0  0  0  0  0  0  0
   46.2503  -57.4038    9.8175 O   0  0  0  0  0  0  0  0  0  0  0  0
  1  2  2  0
  2  3  1  0
  3  4  2  0
  4  5  1  0
  1  6  1  0
  5  6  2  0
  6  7  1  0
  5  8  1  0
  8  9  2  0
  4 10  1  0
  9 10  1  0
 13 10  1  1
 11 14  1  6
 12 15  2  0
 13 16  1  0
 16 17  1  1
 11 18  2  0
 12 19  1  0
 16 20  1  0
 20 21  1  1
 11 22  1  0
 12 22  1  0
 20 23  1  0
 13 24  1  0
 23 24  1  0
 23 25  1  1
 11 26  1  0
 25 26  1  0
M  END
