7Q27_8KC_A_707
     RDKit          3D

 35 37  0  0  0  0  0  0  0  0999 V2000
  -17.3030   -9.1248   24.6626 C   0  0  0  0  0  0  0  0  0  0  0  0
  -16.9087   -8.7180   23.2460 C   0  0  0  0  0  0  0  0  0  0  0  0
  -15.8295   -9.6650   22.7072 C   0  0  0  0  0  0  0  0  0  0  0  0
  -15.4096   -9.2575   21.3145 C   0  0  0  0  0  0  0  0  0  0  0  0
  -14.3232   -8.1547   21.3564 C   0  0  1  0  0  0  0  0  0  0  0  0
  -10.4470   -6.2965   24.0462 C   0  0  0  0  0  0  0  0  0  0  0  0
   -9.9686   -7.0112   22.9619 C   0  0  0  0  0  0  0  0  0  0  0  0
   -9.2844   -6.3728   21.9212 C   0  0  0  0  0  0  0  0  0  0  0  0
   -9.0812   -5.0015   21.9762 C   0  0  0  0  0  0  0  0  0  0  0  0
   -9.5701   -4.3139   23.0717 C   0  0  0  0  0  0  0  0  0  0  0  0
  -13.1887   -8.6958   22.1948 C   0  0  0  0  0  0  0  0  0  0  0  0
  -12.7586   -6.7453   18.3204 C   0  0  0  0  0  0  0  0  0  0  0  0
  -11.3419   -6.4967   18.0013 C   0  0  0  0  0  0  0  0  0  0  0  0
  -10.9481   -6.3630   16.6061 C   0  0  0  0  0  0  0  0  0  0  0  0
  -11.9453   -6.3558   15.6413 C   0  0  0  0  0  0  0  0  0  0  0  0
  -11.6636   -6.2038   14.2911 C   0  0  0  0  0  0  0  0  0  0  0  0
  -11.9572  -10.3372   24.4218 C   0  0  0  0  0  0  0  0  0  0  0  0
  -11.7931   -8.9022   24.1966 C   0  0  2  0  0  0  0  0  0  0  0  0
  -11.5384   -8.1059   25.4617 C   0  0  0  0  0  0  0  0  0  0  0  0
  -11.1413   -6.7088   25.1755 C   0  0  0  0  0  0  0  0  0  0  0  0
  -11.3534   -5.5642   25.9124 C   0  0  0  0  0  0  0  0  0  0  0  0
  -10.2465   -4.9250   24.1060 C   0  0  0  0  0  0  0  0  0  0  0  0
  -13.1923   -6.7019   19.7535 C   0  0  1  0  0  0  0  0  0  0  0  0
  -13.8398   -5.4378   20.1623 C   0  0  0  0  0  0  0  0  0  0  0  0
  -10.3563   -6.0537   13.8773 C   0  0  0  0  0  0  0  0  0  0  0  0
   -9.3580   -6.0570   14.8049 C   0  0  0  0  0  0  0  0  0  0  0  0
   -9.6588   -6.2094   16.1395 C   0  0  0  0  0  0  0  0  0  0  0  0
  -10.8131   -4.4977   25.2633 N   0  0  0  0  0  0  0  0  0  0  0  0
  -12.9205   -8.2773   23.5110 N   0  0  0  0  0  0  0  0  0  0  0  0
  -13.9615   -7.8809   20.0147 N   0  0  0  0  0  0  0  0  0  0  0  0
  -13.0924  -10.9226   24.4558 O   0  0  0  0  0  0  0  0  0  0  0  0
  -10.8593  -11.1697   24.6173 O   0  0  0  0  0  0  0  0  0  0  0  0
  -15.0120   -5.0971   19.8979 O   0  0  0  0  0  0  0  0  0  0  0  0
  -13.0747   -4.5477   20.9082 O   0  0  0  0  0  0  0  0  0  0  0  0
  -12.4831   -9.5706   21.6048 O   0  0  0  0  0  0  0  0  0  0  0  0
  2  1  1  6
  3  2  1  1
  3  4  1  0
  4  5  1  6
  6  7  2  0
  7  8  1  0
  8  9  2  0
  9 10  1  0
  5 11  1  0
 12 13  1  1
 13 14  1  1
 14 15  2  0
 15 16  1  0
 17 18  1  0
 18 19  1  0
  6 20  1  0
 19 20  1  6
 20 21  2  0
 10 22  2  0
  6 22  1  0
 23 12  1  0
 23 24  1  0
 16 25  2  0
 25 26  1  0
 26 27  2  0
 14 27  1  0
 22 28  1  0
 21 28  1  0
 11 29  1  0
 18 29  1  1
  5 30  1  6
 23 30  1  6
 17 31  2  0
 17 32  1  0
 24 33  2  0
 24 34  1  0
 11 35  2  0
M  END
$$$$
