7Q5I_I0F_AAA_901
     RDKit          3D

 27 28  0  0  0  0  0  0  0  0999 V2000
   29.8474   25.5580   29.6729 N   0  0  0  0  0  0  0  0  0  0  0  0
   33.4647   24.7321   27.6371 C   0  0  1  0  0  0  0  0  0  0  0  0
   32.4799   25.8215   27.1656 C   0  0  1  0  0  0  0  0  0  0  0  0
   32.3912   25.8875   25.6461 C   0  0  0  0  0  0  0  0  0  0  0  0
   29.0939   26.6537   29.7803 C   0  0  0  0  0  0  0  0  0  0  0  0
   28.8594   27.1589   31.2106 C   0  0  0  0  0  0  0  0  0  0  0  0
   29.2832   29.1758   32.7804 C   0  0  0  0  0  0  0  0  0  0  0  0
   29.0902   30.1922   35.4104 C   0  0  0  0  0  0  0  0  0  0  0  0
   29.5154   30.5390   33.0166 C   0  0  0  0  0  0  0  0  0  0  0  0
   27.6764   31.2805   37.1124 C   0  0  0  0  0  0  0  0  0  0  0  0
   29.9830   30.3478   37.6935 C   0  0  0  0  0  0  0  0  0  0  0  0
   28.9560   30.6871   36.6948 N   0  0  0  0  0  0  0  0  0  0  0  0
   29.4103   31.0286   34.3200 C   0  0  0  0  0  0  0  0  0  0  0  0
   28.8837   28.8286   35.1527 C   0  0  0  0  0  0  0  0  0  0  0  0
   28.9820   28.3412   33.8502 C   0  0  0  0  0  0  0  0  0  0  0  0
   29.3144   28.5469   31.5287 C   0  0  0  0  0  0  0  0  0  0  0  0
   28.0581   26.3664   32.0361 C   0  0  0  0  0  0  0  0  0  0  0  0
   27.4443   25.6566   32.6393 N   0  0  0  0  0  0  0  0  0  0  0  0
   28.6536   27.2692   28.8175 O   0  0  0  0  0  0  0  0  0  0  0  0
   31.2208   25.6500   29.1671 C   0  0  2  0  0  0  0  0  0  0  0  0
   31.1637   25.5558   27.6882 O   0  0  0  0  0  0  0  0  0  0  0  0
   31.2127   25.2130   25.2009 O   0  0  0  0  0  0  0  0  0  0  0  0
   34.7894   25.0662   27.2117 O   0  0  0  0  0  0  0  0  0  0  0  0
   33.4604   24.6086   29.1574 C   0  0  2  0  0  0  0  0  0  0  0  0
   34.2496   23.4906   29.5399 O   0  0  0  0  0  0  0  0  0  0  0  0
   32.0201   24.4713   29.6899 C   0  0  1  0  0  0  0  0  0  0  0  0
   32.0039   24.5228   31.1188 O   0  0  0  0  0  0  0  0  0  0  0  0
  2  3  1  0
  3  4  1  6
  1  5  1  0
  5  6  1  0
  7  9  2  0
  8 12  1  0
 10 12  1  0
 11 12  1  0
  9 13  1  0
  8 13  2  0
  8 14  1  0
  7 15  1  0
 14 15  2  0
  6 16  2  0
  7 16  1  0
  6 17  1  0
 17 18  3  0
  5 19  2  0
 20  1  1  1
  3 21  1  0
 20 21  1  0
  4 22  1  0
  2 23  1  1
  2 24  1  0
 24 25  1  6
 24 26  1  0
 20 26  1  0
 26 27  1  1
M  END
