6XAF_GDP_B_1602
     RDKit          3D

 43 45  0  0  0  0  0  0  0  0999 V2000
    0.4895   -0.9102   -2.9554 P   0  0  1  0  0  5  0  0  0  0  0  0
    0.2705   -1.4847   -1.5738 O   0  0  0  0  0  0  0  0  0  0  0  0
    1.6345    0.3307   -2.8568 O   0  0  0  0  0  0  0  0  0  0  0  0
    1.0836   -2.1193   -3.9806 O   0  0  0  0  0  0  0  0  0  0  0  0
   -0.9728   -0.2594   -3.5371 O   0  0  0  0  0  0  0  0  0  0  0  0
   -1.8031    0.4267   -2.2163 P   0  0  1  0  0  5  0  0  0  0  0  0
   -0.8326    0.8989   -1.1551 O   0  0  0  0  0  0  0  0  0  0  0  0
   -2.6858    1.7637   -2.7634 O   0  0  0  0  0  0  0  0  0  0  0  0
   -2.8718   -0.7126   -1.5321 O   0  0  0  0  0  0  0  0  0  0  0  0
   -2.2607   -1.9811   -1.5932 C   0  0  0  0  0  0  0  0  0  0  0  0
   -1.4533   -2.2437   -0.3133 C   0  0  1  0  0  0  0  0  0  0  0  0
   -0.7414   -1.0801    0.0456 O   0  0  0  0  0  0  0  0  0  0  0  0
   -2.3354   -2.6773    0.8600 C   0  0  1  0  0  0  0  0  0  0  0  0
   -1.7204   -3.7073    1.6013 O   0  0  0  0  0  0  0  0  0  0  0  0
   -2.4854   -1.4078    1.6658 C   0  0  1  0  0  0  0  0  0  0  0  0
   -2.5187   -1.6859    3.0434 O   0  0  0  0  0  0  0  0  0  0  0  0
   -1.2426   -0.5967    1.2770 C   0  0  2  0  0  0  0  0  0  0  0  0
   -1.5172    0.8450    1.1636 N   0  0  0  0  0  4  0  0  0  0  0  0
   -1.1915    1.7061    0.1585 C   0  0  0  0  0  0  0  0  0  0  0  0
   -1.7208    2.9510    0.3133 N   0  0  0  0  0  0  0  0  0  0  0  0
   -2.4196    2.8345    1.4556 C   0  0  0  0  0  0  0  0  0  0  0  0
   -3.1925    3.7793    2.1145 C   0  0  0  0  0  0  0  0  0  0  0  0
   -3.3068    4.9527    1.6703 O   0  0  0  0  0  0  0  0  0  0  0  0
   -3.8288    3.3987    3.2641 N   0  0  0  0  0  4  0  0  0  0  0  0
   -3.7124    2.1160    3.7482 C   0  0  0  0  0  0  0  0  0  0  0  0
   -4.3815    1.7394    4.9512 N   0  0  0  0  0  0  0  0  0  0  0  0
   -2.9491    1.1949    3.0841 N   0  0  0  0  0  0  0  0  0  0  0  0
   -2.3136    1.5831    1.9517 C   0  0  0  0  0  0  0  0  0  0  0  0
    1.7768    0.6150   -3.7949 H   0  0  0  0  0  0  0  0  0  0  0  0
    1.9183   -2.4288   -3.5469 H   0  0  0  0  0  0  0  0  0  0  0  0
   -2.0208    2.3331   -3.2262 H   0  0  0  0  0  0  0  0  0  0  0  0
   -3.0194   -2.7908   -1.6935 H   0  0  0  0  0  0  0  0  0  0  0  0
   -1.5604   -2.0325   -2.4577 H   0  0  0  0  0  0  0  0  0  0  0  0
   -0.7183   -3.0460   -0.5457 H   0  0  0  0  0  0  0  0  0  0  0  0
   -3.3312   -3.0418    0.5225 H   0  0  0  0  0  0  0  0  0  0  0  0
   -0.8225   -3.3911    1.8868 H   0  0  0  0  0  0  0  0  0  0  0  0
   -3.4219   -0.8941    1.3460 H   0  0  0  0  0  0  0  0  0  0  0  0
   -2.7979   -0.8522    3.5003 H   0  0  0  0  0  0  0  0  0  0  0  0
   -0.4518   -0.7423    2.0458 H   0  0  0  0  0  0  0  0  0  0  0  0
   -0.5803    1.4420   -0.6920 H   0  0  0  0  0  0  0  0  0  0  0  0
   -4.4139    4.0945    3.7800 H   0  0  0  0  0  0  0  0  0  0  0  0
   -4.2886    0.7685    5.3237 H   0  0  0  0  0  0  0  0  0  0  0  0
   -4.9660    2.4281    5.4747 H   0  0  0  0  0  0  0  0  0  0  0  0
  1  2  2  0
  1  3  1  1
  1  4  1  0
  1  5  1  0
  6  5  1  6
  6  7  2  0
  6  8  1  0
  6  9  1  0
  9 10  1  0
 11 10  1  0
 11 12  1  0
 11 13  1  0
 13 14  1  0
 13 15  1  0
 15 16  1  0
 12 17  1  0
 15 17  1  0
 17 18  1  0
 18 19  4  0
 19 20  4  0
 20 21  4  0
 21 22  4  0
 22 23  2  0
 22 24  4  0
 24 25  4  0
 25 26  1  0
 25 27  4  0
 18 28  4  0
 21 28  4  0
 27 28  4  0
  3 29  1  0
  4 30  1  0
  8 31  1  0
 10 32  1  0
 10 33  1  0
 11 34  1  6
 13 35  1  6
 14 36  1  0
 15 37  1  6
 16 38  1  0
 17 39  1  1
 19 40  1  0
 24 41  1  0
 26 42  1  0
 26 43  1  0
M  CHG  2  18   1  24   1
M  END
