1M2Z_DEX_A_301
     RDKit          3D

 28 31  0  0  0  0  0  0  0  0999 V2000
   30.8150    6.8380    9.6380 C   0  0  0  0  0  0  0  0  0  0  0  0
   31.0790    7.5730    8.5640 C   0  0  0  0  0  0  0  0  0  0  0  0
   32.3500    8.3670    8.5490 C   0  0  0  0  0  0  0  0  0  0  0  0
   33.1920    8.3840    9.7900 C   0  0  0  0  0  0  0  0  0  0  0  0
   32.8600    7.6260   10.8320 C   0  0  0  0  0  0  0  0  0  0  0  0
   33.7450    7.7080   12.0400 C   0  0  0  0  0  0  0  0  0  0  0  0
   32.8990    8.0240   13.2700 C   0  0  0  0  0  0  0  0  0  0  0  0
   31.6540    7.1500   13.3840 C   0  0  2  0  0  0  0  0  0  0  0  0
   30.8260    7.0610   12.1020 C   0  0  1  0  0  0  0  0  0  0  0  0
   31.6650    6.7140   10.8710 C   0  0  1  0  0  0  0  0  0  0  0  0
   29.4930    6.3260   12.2370 C   0  0  2  0  0  0  0  0  0  0  0  0
   28.7280    6.5700   13.5340 C   0  0  0  0  0  0  0  0  0  0  0  0
   29.6260    6.4770   14.7670 C   0  0  1  0  0  0  0  0  0  0  0  0
   30.7830    7.4620   14.5980 C   0  0  1  0  0  0  0  0  0  0  0  0
   31.3930    7.6320   15.9860 C   0  0  0  0  0  0  0  0  0  0  0  0
   30.2030    7.4630   16.9260 C   0  0  2  0  0  0  0  0  0  0  0  0
   29.0230    7.0530   16.0480 C   0  0  2  0  0  0  0  0  0  0  0  0
   30.0650    5.0310   14.9890 C   0  0  0  0  0  0  0  0  0  0  0  0
   32.1830    5.2780   10.8610 C   0  0  0  0  0  0  0  0  0  0  0  0
   28.0530    6.1170   16.7520 C   0  0  0  0  0  0  0  0  0  0  0  0
   26.5460    6.3020   16.6910 C   0  0  0  0  0  0  0  0  0  0  0  0
   30.0040    8.7080   17.7840 C   0  0  0  0  0  0  0  0  0  0  0  0
   30.4060    8.3410   11.8910 F   0  0  0  0  0  0  0  0  0  0  0  0
   32.6900    8.9850    7.5430 O   0  0  0  0  0  0  0  0  0  0  0  0
   29.7060    4.9240   12.1580 O   0  0  0  0  0  0  0  0  0  0  0  0
   28.3010    8.2390   15.7480 O   0  0  0  0  0  0  0  0  0  0  0  0
   28.4710    5.1550   17.3930 O   0  0  0  0  0  0  0  0  0  0  0  0
   25.9300    5.1110   16.2250 O   0  0  0  0  0  0  0  0  0  0  0  0
  1  2  2  0
  2  3  1  0
  3  4  1  0
  4  5  2  0
  5  6  1  0
  6  7  1  0
  8  7  1  6
  8  9  1  0
  1 10  1  0
  5 10  1  0
  9 10  1  0
  9 11  1  0
 11 12  1  0
 12 13  1  0
  8 14  1  0
 13 14  1  0
 14 15  1  1
 15 16  1  0
 13 17  1  0
 16 17  1  0
 13 18  1  1
 10 19  1  1
 17 20  1  0
 20 21  1  0
 16 22  1  6
  9 23  1  6
  3 24  2  0
 11 25  1  1
 17 26  1  6
 20 27  2  0
 21 28  1  0
M  END
$$$$
