@<TRIPOS>MOLECULE
1M2Z_DEX_A_301
 57 60 0 0 0
SMALL
GASTEIGER

@<TRIPOS>ATOM
      1 C           1.1249   -4.2393    1.2900 C.2     1  UNL1       -0.0674
      2 C           0.9584   -5.3734    1.9742 C.2     1  UNL1       -0.0180
      3 C          -0.3399   -5.6853    2.5664 C.2     1  UNL1        0.1787
      4 C          -1.3722   -4.6484    2.5942 C.2     1  UNL1       -0.0148
      5 C          -1.1995   -3.4913    1.9295 C.2     1  UNL1       -0.0532
      6 C          -2.2856   -2.4404    2.0573 C.3     1  UNL1       -0.0301
      7 C          -1.7293   -1.0167    1.9782 C.3     1  UNL1       -0.0432
      8 C          -0.8539   -0.8886    0.7292 C.3     1  UNL1        0.0003
      9 C           0.4030   -1.8241    0.8319 C.3     1  UNL1        0.1526
     10 C          -0.0553   -3.3391    0.8897 C.3     1  UNL1        0.0443
     11 C           1.5250   -1.4031   -0.2338 C.3     1  UNL1        0.0910
     12 C           1.0614   -0.4894   -1.4074 C.3     1  UNL1       -0.0151
     13 C           0.0769    0.6748   -1.0307 C.3     1  UNL1        0.0096
     14 C          -0.3601    0.5360    0.4397 C.3     1  UNL1       -0.0263
     15 C          -1.1852    1.7800    0.7271 C.3     1  UNL1       -0.0436
     16 C          -0.4806    2.8765   -0.1218 C.3     1  UNL1       -0.0071
     17 C           0.6248    2.1467   -0.9826 C.3     1  UNL1        0.1340
     18 C          -1.1278    0.5889   -2.0396 C.3     1  UNL1       -0.0562
     19 C          -0.5920   -3.8398   -0.4729 C.3     1  UNL1       -0.0493
     20 C           0.8027    2.8100   -2.3568 C.2     1  UNL1        0.1904
     21 C           2.1721    3.0030   -2.9662 C.3     1  UNL1        0.1052
     22 C           0.0686    4.0162    0.7498 C.3     1  UNL1       -0.0594
     23 F           0.9855   -1.5782    2.0738 F       1  UNL1       -0.2377
     24 O          -0.5427   -6.8036    3.1079 O.2     1  UNL1       -0.2879
     25 O           2.1954   -2.5117   -0.7731 O.3     1  UNL1       -0.3886
     26 O           1.8454    2.2017   -0.2655 O.3     1  UNL1       -0.3802
     27 O          -0.1755    3.2167   -2.9692 O.2     1  UNL1       -0.2919
     28 O           2.0879    3.6105   -4.2282 O.3     1  UNL1       -0.3874
     29 H           2.1282   -4.0283    0.9588 H       1  UNL1        0.0583
     30 H           1.8018   -6.0299    2.1504 H       1  UNL1        0.0653
     31 H          -2.2485   -4.8082    3.2119 H       1  UNL1        0.0656
     32 H          -2.8250   -2.5409    3.0252 H       1  UNL1        0.0310
     33 H          -3.0282   -2.5963    1.2448 H       1  UNL1        0.0310
     34 H          -2.5866   -0.3127    1.9163 H       1  UNL1        0.0272
     35 H          -1.1569   -0.7722    2.8992 H       1  UNL1        0.0272
     36 H          -1.4912   -1.2146   -0.1071 H       1  UNL1        0.0336
     37 H           2.2763   -0.7928    0.3231 H       1  UNL1        0.0626
     38 H           1.9447   -0.0914   -1.9472 H       1  UNL1        0.0297
     39 H           0.5849   -1.1744   -2.1441 H       1  UNL1        0.0297
     40 H           0.5261    0.6743    1.1063 H       1  UNL1        0.0311
     41 H          -1.1846    2.0110    1.8159 H       1  UNL1        0.0272
     42 H          -2.2383    1.6384    0.4012 H       1  UNL1        0.0272
     43 H          -1.2547    3.3287   -0.7799 H       1  UNL1        0.0330
     44 H          -0.7594    0.7260   -3.0781 H       1  UNL1        0.0236
     45 H          -1.9103    1.3517   -1.8605 H       1  UNL1        0.0236
     46 H          -1.6253   -0.3996   -2.0437 H       1  UNL1        0.0236
     47 H          -1.5173   -3.3101   -0.7748 H       1  UNL1        0.0242
     48 H          -0.8467   -4.9201   -0.4111 H       1  UNL1        0.0242
     49 H           0.1525   -3.7223   -1.2837 H       1  UNL1        0.0242
     50 H           2.6924    2.0229   -3.0506 H       1  UNL1        0.0637
     51 H           2.7727    3.6595   -2.3026 H       1  UNL1        0.0637
     52 H           0.7545    3.6261    1.5318 H       1  UNL1        0.0233
     53 H           0.6148    4.7474    0.1168 H       1  UNL1        0.0233
     54 H          -0.7704    4.5441    1.2511 H       1  UNL1        0.0233
     55 H           3.0675   -2.1904   -1.1236 H       1  UNL1        0.2099
     56 H           2.5187    1.6328   -0.7142 H       1  UNL1        0.2108
     57 H           1.8051    2.9034   -4.8655 H       1  UNL1        0.2100
@<TRIPOS>BOND
     1     1     2    2
     2     2     3    1
     3     3     4    1
     4     4     5    2
     5     5     6    1
     6     6     7    1
     7     8     7    1
     8     8     9    1
     9     1    10    1
    10     5    10    1
    11     9    10    1
    12     9    11    1
    13    11    12    1
    14    12    13    1
    15     8    14    1
    16    13    14    1
    17    14    15    1
    18    15    16    1
    19    13    17    1
    20    16    17    1
    21    13    18    1
    22    10    19    1
    23    17    20    1
    24    20    21    1
    25    16    22    1
    26     9    23    1
    27     3    24    2
    28    11    25    1
    29    17    26    1
    30    20    27    2
    31    21    28    1
    32     1    29    1
    33     2    30    1
    34     4    31    1
    35     6    32    1
    36     6    33    1
    37     7    34    1
    38     7    35    1
    39     8    36    1
    40    11    37    1
    41    12    38    1
    42    12    39    1
    43    14    40    1
    44    15    41    1
    45    15    42    1
    46    16    43    1
    47    18    44    1
    48    18    45    1
    49    18    46    1
    50    19    47    1
    51    19    48    1
    52    19    49    1
    53    21    50    1
    54    21    51    1
    55    22    52    1
    56    22    53    1
    57    22    54    1
    58    25    55    1
    59    26    56    1
    60    28    57    1
