1GPK_HUP_A_1540
     RDKit          3D

 18 20  0  0  0  0  0  0  0  0999 V2000
   -6.3487   88.0089   54.2784 C   0  0  0  0  0  0  0  0  0  0  0  0
   -6.9982   89.0207   53.8579 O   0  0  0  0  0  0  0  0  0  0  0  0
   -5.0049   88.0085   54.3041 N   0  0  0  0  0  0  0  0  0  0  0  0
   -7.0714   86.9144   54.7062 C   0  0  0  0  0  0  0  0  0  0  0  0
   -6.3870   85.8097   55.1648 C   0  0  0  0  0  0  0  0  0  0  0  0
   -4.9883   85.8405   55.1790 C   0  0  0  0  0  0  0  0  0  0  0  0
   -4.2992   86.9510   54.7440 C   0  0  0  0  0  0  0  0  0  0  0  0
   -2.8273   87.0601   54.7280 C   0  0  0  0  0  0  0  0  0  0  0  0
   -2.1289   85.7779   55.0623 C   0  0  1  0  0  0  0  0  0  0  0  0
   -1.7965   85.7729   56.5330 C   0  0  0  0  0  0  0  0  0  0  0  0
   -1.7296   83.8797   52.9995 C   0  0  0  0  0  0  0  0  0  0  0  0
   -2.7000   83.5955   54.0821 C   0  0  0  0  0  0  0  0  0  0  0  0
   -3.0296   84.5944   54.8954 C   0  0  0  0  0  0  0  0  0  0  0  0
   -4.2960   84.6122   55.6876 C   0  0  2  0  0  0  0  0  0  0  0  0
   -5.0774   83.4292   55.4927 N   0  0  0  0  0  0  0  0  0  0  0  0
   -4.0298   84.8835   57.1497 C   0  0  0  0  0  0  0  0  0  0  0  0
   -2.6108   85.2342   57.4353 C   0  0  0  0  0  0  0  0  0  0  0  0
   -2.1144   84.9463   58.8326 C   0  0  0  0  0  0  0  0  0  0  0  0
  1  2  2  0
  1  3  1  0
  1  4  1  0
  4  5  2  0
  5  6  1  0
  3  7  1  0
  6  7  2  0
  8  7  1  6
  9  8  1  0
  9 10  1  1
 11 12  1  1
  9 13  1  0
 12 13  2  0
  6 14  1  0
 13 14  1  0
 14 15  1  1
 14 16  1  0
 10 17  2  0
 16 17  1  6
 18 17  1  6
M  END
$$$$
