
     RDKit          3D

 32 34  0  0  0  0  0  0  0  0999 V2000
  -58.2361    6.5201  -22.4191 P   0  0  0  0  0  5  0  0  0  0  0  0
  -58.1391    6.3508  -20.9534 O   0  0  0  0  0  0  0  0  0  0  0  0
  -57.7689    5.1947  -23.1787 O   0  0  0  0  0  0  0  0  0  0  0  0
  -57.2721    7.5960  -23.0752 O   0  0  0  0  0  0  0  0  0  0  0  0
  -59.6527    6.7637  -23.0664 O   0  0  0  0  0  0  0  0  0  0  0  0
  -60.9476    7.0602  -22.1942 P   0  0  2  0  0  5  0  0  0  0  0  0
  -60.7004    7.7487  -20.8972 O   0  0  0  0  0  0  0  0  0  0  0  0
  -61.5333    5.5740  -22.0346 O   0  0  0  0  0  0  0  0  0  0  0  0
  -61.9811    7.7297  -23.1946 O   0  0  0  0  0  0  0  0  0  0  0  0
  -61.6401    8.9161  -24.1836 P   0  0  2  0  0  5  0  0  0  0  0  0
  -62.2848    8.9091  -25.5276 O   0  0  0  0  0  0  0  0  0  0  0  0
  -60.0485    8.7692  -24.3344 O   0  0  0  0  0  0  0  0  0  0  0  0
  -61.7371   10.2805  -23.3592 O   0  0  0  0  0  0  0  0  0  0  0  0
  -62.6484   10.3357  -22.2685 C   0  0  0  0  0  0  0  0  0  0  0  0
  -63.8494   11.2185  -22.6180 C   0  0  1  0  0  0  0  0  0  0  0  0
  -63.5285   12.1008  -23.7091 O   0  0  0  0  0  0  0  0  0  0  0  0
  -65.0908   10.4441  -23.0550 C   0  0  1  0  0  0  0  0  0  0  0  0
  -65.8507    9.9874  -21.9358 O   0  0  0  0  0  0  0  0  0  0  0  0
  -65.8507   11.4781  -23.8735 C   0  0  1  0  0  0  0  0  0  0  0  0
  -66.6989   12.2668  -23.0180 O   0  0  0  0  0  0  0  0  0  0  0  0
  -64.7245   12.3205  -24.4938 C   0  0  2  0  0  0  0  0  0  0  0  0
  -64.4490   11.9835  -25.8782 N   0  0  0  0  0  0  0  0  0  0  0  0
  -63.2190   11.7808  -26.4492 C   0  0  0  0  0  0  0  0  0  0  0  0
  -63.3008   11.5932  -27.7492 N   0  0  0  0  0  0  0  0  0  0  0  0
  -64.6459   11.6147  -28.0117 C   0  0  0  0  0  0  0  0  0  0  0  0
  -65.3675   11.4558  -29.2560 C   0  0  0  0  0  0  0  0  0  0  0  0
  -64.8660   11.2976  -30.3641 O   0  0  0  0  0  0  0  0  0  0  0  0
  -66.7448   11.5097  -29.0725 N   0  0  0  0  0  0  0  0  0  0  0  0
  -67.3618   11.7324  -27.8653 C   0  0  0  0  0  0  0  0  0  0  0  0
  -68.7157   11.7667  -27.8830 N   0  0  0  0  0  0  0  0  0  0  0  0
  -66.7230   11.8917  -26.7391 N   0  0  0  0  0  0  0  0  0  0  0  0
  -65.3795   11.8234  -26.8660 C   0  0  0  0  0  0  0  0  0  0  0  0
  1  2  2  0
  1  3  1  0
  1  4  1  0
  1  5  1  0
  6  5  1  0
  6  7  2  0
  6  8  1  1
  6  9  1  0
 10  9  1  0
 10 11  2  0
 10 12  1  6
 10 13  1  0
 13 14  1  0
 15 14  1  6
 15 16  1  0
 15 17  1  0
 17 18  1  1
 17 19  1  0
 19 20  1  1
 16 21  1  0
 19 21  1  0
 21 22  1  6
 22 23  4  0
 23 24  4  0
 24 25  4  0
 25 26  4  0
 26 27  2  0
 26 28  4  0
 28 29  4  0
 29 30  1  0
 29 31  4  0
 22 32  4  0
 25 32  4  0
 31 32  4  0
M  END
