1YQY_915_A_782
     RDKit          3D

 23 24  0  0  0  0  0  0  0  0999 V2000
   11.0734   21.8004   28.8228 C   0  0  0  0  0  0  0  0  0  0  0  0
   12.1808   21.1411   29.4449 C   0  0  0  0  0  0  0  0  0  0  0  0
   13.3203   21.9001   29.8152 C   0  0  0  0  0  0  0  0  0  0  0  0
   13.3084   23.2899   29.5371 C   0  0  0  0  0  0  0  0  0  0  0  0
   12.2178   23.9488   28.8690 C   0  0  0  0  0  0  0  0  0  0  0  0
   11.1026   23.1939   28.5320 C   0  0  0  0  0  0  0  0  0  0  0  0
   14.3584   24.0387   29.9115 F   0  0  0  0  0  0  0  0  0  0  0  0
   14.4803   21.2518   30.5236 C   0  0  0  0  0  0  0  0  0  0  0  0
    9.6220   20.8685   28.4340 S   0  0  2  0  0  0  0  0  0  0  0  0
   10.0252   19.7680   27.1581 N   0  0  0  0  0  0  0  0  0  0  0  0
    9.3568   19.9140   25.8614 C   0  0  1  0  0  0  0  0  0  0  0  0
   10.1271   20.8213   24.8788 C   0  0  0  0  0  0  0  0  0  0  0  0
    9.9791   22.1588   25.1080 N   0  0  0  0  0  0  0  0  0  0  0  0
   11.0626   22.9942   24.8845 O   0  0  0  0  0  0  0  0  0  0  0  0
   10.7909   20.4110   23.9698 O   0  0  0  0  0  0  0  0  0  0  0  0
    8.6911   21.7104   27.7643 O   0  0  0  0  0  0  0  0  0  0  0  0
    9.2574   20.0749   29.5960 O   0  0  0  0  0  0  0  0  0  0  0  0
    9.1127   18.5954   25.1020 C   0  0  1  0  0  0  0  0  0  0  0  0
    8.0488   17.6209   25.7147 C   0  0  0  0  0  0  0  0  0  0  0  0
    7.8397   16.3324   24.9277 C   0  0  0  0  0  0  0  0  0  0  0  0
    7.5183   16.6458   23.5873 O   0  0  0  0  0  0  0  0  0  0  0  0
    8.5108   17.4270   22.8877 C   0  0  0  0  0  0  0  0  0  0  0  0
    8.7440   18.7670   23.6090 C   0  0  0  0  0  0  0  0  0  0  0  0
  1  2  2  0
  2  3  1  0
  3  4  2  0
  4  5  1  0
  1  6  1  0
  5  6  2  0
  4  7  1  0
  3  8  1  0
  1  9  1  0
  9 10  1  6
 11 10  1  1
 11 12  1  0
 12 13  1  0
 13 14  1  0
 12 15  2  0
  9 16  2  0
  9 17  2  0
 11 18  1  0
 18 19  1  1
 19 20  1  0
 20 21  1  0
 21 22  1  0
 18 23  1  0
 22 23  1  0
M  END
