7RH3_59O_A_302
     RDKit          3D

 56 58  0  0  0  0  0  0  0  0999 V2000
   12.7310   -6.0899   -1.0263 C   0  0  1  0  0  0  0  0  0  0  0  0
   17.8307   -8.7826   -1.6032 C   0  0  0  0  0  0  0  0  0  0  0  0
   22.4460   -4.4144    0.1832 O   0  0  0  0  0  0  0  0  0  0  0  0
   21.8622   -5.0168   -0.9422 C   0  0  2  0  0  0  0  0  0  0  0  0
   20.8149   -9.0401    2.9777 C   0  0  2  0  0  0  0  0  0  0  0  0
   21.0081   -7.2534   -1.9437 C   0  0  2  0  0  0  0  0  0  0  0  0
   20.3143   -8.5502   -1.4659 C   0  0  1  0  0  0  0  0  0  0  0  0
   21.2254   -8.1577    0.8708 C   0  0  1  0  0  0  0  0  0  0  0  0
   21.1216   -9.1712   -0.3133 C   0  0  1  0  0  0  0  0  0  0  0  0
   21.7212   -6.5371   -0.7555 C   0  0  2  0  0  0  0  0  0  0  0  0
   21.0426   -6.8047    0.4579 O   0  0  0  0  0  0  0  0  0  0  0  0
   20.2287   -8.4701    1.8284 O   0  0  0  0  0  0  0  0  0  0  0  0
   20.5144  -10.3971    0.0971 O   0  0  0  0  0  0  0  0  0  0  0  0
   21.2296  -11.5689    0.3677 C   0  0  0  0  0  0  0  0  0  0  0  0
   18.9873   -8.2531   -1.0177 O   0  0  0  0  0  0  0  0  0  0  0  0
   20.0553   -6.4241   -2.5641 O   0  0  0  0  0  0  0  0  0  0  0  0
   17.8870   -9.8628   -2.2534 O   0  0  0  0  0  0  0  0  0  0  0  0
   22.4511  -11.6518    0.0635 O   0  0  0  0  0  0  0  0  0  0  0  0
   20.5518  -12.6811    1.0698 C   0  0  0  0  0  0  0  0  0  0  0  0
   16.5415   -8.0775   -1.4446 C   0  0  0  0  0  0  0  0  0  0  0  0
   15.6354   -8.4753   -0.4465 C   0  0  0  0  0  0  0  0  0  0  0  0
   16.1888   -7.0230   -2.3055 C   0  0  0  0  0  0  0  0  0  0  0  0
   14.4062   -7.8247   -0.3056 C   0  0  0  0  0  0  0  0  0  0  0  0
   14.9592   -6.3734   -2.1631 C   0  0  0  0  0  0  0  0  0  0  0  0
   14.0673   -6.7594   -1.1522 C   0  0  0  0  0  0  0  0  0  0  0  0
   19.7462  -12.3706    2.1807 C   0  0  0  0  0  0  0  0  0  0  0  0
   20.7314  -14.0421    0.7053 C   0  0  0  0  0  0  0  0  0  0  0  0
   19.1562  -13.3820    2.9391 C   0  0  0  0  0  0  0  0  0  0  0  0
   20.1466  -15.0476    1.4944 C   0  0  0  0  0  0  0  0  0  0  0  0
   21.4513  -14.4220   -0.4788 N   0  0  0  0  0  4  0  0  0  0  0  0
   19.3633  -14.7195    2.6034 C   0  0  0  0  0  0  0  0  0  0  0  0
   18.6271  -15.9887    3.5650 Cl  0  0  0  0  0  0  0  0  0  0  0  0
   22.1828  -13.5949   -1.0611 O   0  0  0  0  0  0  0  0  0  0  0  0
   21.1501  -15.6043   -1.1148 O   0  0  0  0  0  1  0  0  0  0  0  0
   11.9151   -6.8435   -1.0183 H   0  0  0  0  0  0  0  0  0  0  0  0
   12.6709   -5.5092   -0.0811 H   0  0  0  0  0  0  0  0  0  0  0  0
   12.5806   -5.4019   -1.8841 H   0  0  0  0  0  0  0  0  0  0  0  0
   22.9458   -5.1251    0.6631 H   0  0  0  0  0  0  0  0  0  0  0  0
   22.4754   -4.8086   -1.8492 H   0  0  0  0  0  0  0  0  0  0  0  0
   20.8613   -4.5675   -1.1150 H   0  0  0  0  0  0  0  0  0  0  0  0
   21.3344   -9.9953    2.7422 H   0  0  0  0  0  0  0  0  0  0  0  0
   20.0540   -9.1966    3.7739 H   0  0  0  0  0  0  0  0  0  0  0  0
   21.5736   -8.3343    3.3732 H   0  0  0  0  0  0  0  0  0  0  0  0
   21.7924   -7.5446   -2.6842 H   0  0  0  0  0  0  0  0  0  0  0  0
   20.2707   -9.2592   -2.3232 H   0  0  0  0  0  0  0  0  0  0  0  0
   22.2470   -8.2722    1.3090 H   0  0  0  0  0  0  0  0  0  0  0  0
   22.1431   -9.3949   -0.6986 H   0  0  0  0  0  0  0  0  0  0  0  0
   22.7661   -6.9267   -0.6944 H   0  0  0  0  0  0  0  0  0  0  0  0
   20.5324   -5.6131   -2.8811 H   0  0  0  0  0  0  0  0  0  0  0  0
   15.8713   -9.2941    0.2219 H   0  0  0  0  0  0  0  0  0  0  0  0
   16.8591   -6.7040   -3.0941 H   0  0  0  0  0  0  0  0  0  0  0  0
   13.7182   -8.1528    0.4638 H   0  0  0  0  0  0  0  0  0  0  0  0
   14.7026   -5.5700   -2.8426 H   0  0  0  0  0  0  0  0  0  0  0  0
   19.5965  -11.3419    2.4843 H   0  0  0  0  0  0  0  0  0  0  0  0
   18.5480  -13.1234    3.7969 H   0  0  0  0  0  0  0  0  0  0  0  0
   20.2753  -16.0894    1.2287 H   0  0  0  0  0  0  0  0  0  0  0  0
  3  4  1  0
  6  7  1  0
  8  9  1  0
  7  9  1  0
  6 10  1  0
 10  4  1  0
  8 11  1  0
 10 11  1  0
  5 12  1  0
  8 12  1  0
  9 13  1  0
 13 14  1  0
  2 15  1  0
  7 15  1  0
  6 16  1  0
  2 17  2  0
 14 18  2  0
 14 19  1  0
  2 20  1  0
 20 21  2  0
 20 22  1  0
 21 23  1  0
 22 24  2  0
 23 25  2  0
  1 25  1  0
 24 25  1  0
 19 26  2  0
 19 27  1  0
 26 28  1  0
 27 29  2  0
 27 30  1  0
 28 31  2  0
 29 31  1  0
 31 32  1  0
 30 33  2  0
 30 34  1  0
  1 35  1  1
  1 36  1  0
  1 37  1  0
  3 38  1  0
  4 39  1  6
  4 40  1  0
  5 41  1  6
  5 42  1  0
  5 43  1  0
  6 44  1  6
  7 45  1  6
  8 46  1  1
  9 47  1  6
 10 48  1  1
 16 49  1  0
 21 50  1  0
 22 51  1  0
 23 52  1  0
 24 53  1  0
 26 54  1  0
 28 55  1  0
 29 56  1  0
M  CHG  2  30   1  34  -1
M  END
