1W2G_THM_B_1210
     RDKit          3D

 17 18  0  0  0  0  0  0  0  0999 V2000
   34.6382   29.7353   72.6056 O   0  0  0  0  0  0  0  0  0  0  0  0
   35.4129   29.0221   71.6820 C   0  0  0  0  0  0  0  0  0  0  0  0
   34.8142   27.5934   71.4176 C   0  0  1  0  0  0  0  0  0  0  0  0
   34.5852   26.7119   72.5285 O   0  0  0  0  0  0  0  0  0  0  0  0
   33.4729   27.3688   70.6340 C   0  0  1  0  0  0  0  0  0  0  0  0
   33.4127   26.2459   69.6354 O   0  0  0  0  0  0  0  0  0  0  0  0
   32.5154   27.3857   71.8638 C   0  0  0  0  0  0  0  0  0  0  0  0
   33.2357   26.5161   72.8590 C   0  0  2  0  0  0  0  0  0  0  0  0
   33.1120   26.8549   74.3049 N   0  0  0  0  0  0  0  0  0  0  0  0
   32.6515   25.9176   75.1832 C   0  0  0  0  0  0  0  0  0  0  0  0
   32.3491   24.7669   74.7304 O   0  0  0  0  0  0  0  0  0  0  0  0
   32.5061   26.1711   76.4928 N   0  0  0  0  0  0  0  0  0  0  0  0
   32.8167   27.3730   76.9774 C   0  0  0  0  0  0  0  0  0  0  0  0
   32.6587   27.5968   78.2633 O   0  0  0  0  0  0  0  0  0  0  0  0
   33.3035   28.3810   76.1095 C   0  0  0  0  0  0  0  0  0  0  0  0
   33.6674   29.7614   76.6254 C   0  0  0  0  0  0  0  0  0  0  0  0
   33.4461   28.0920   74.7413 C   0  0  0  0  0  0  0  0  0  0  0  0
  1  2  1  0
  3  2  1  1
  3  4  1  0
  3  5  1  0
  5  6  1  1
  5  7  1  0
  4  8  1  0
  7  8  1  0
  8  9  1  1
  9 10  1  0
 10 11  2  0
 10 12  1  0
 12 13  1  0
 13 14  2  0
 13 15  1  0
 15 16  1  0
  9 17  1  0
 15 17  2  0
M  END
