
     RDKit          3D

 40 45  0  0  0  0  0  0  0  0999 V2000
    5.3648  -30.2346   23.1663 C   0  0  0  0  0  0  0  0  0  0  0  0
    7.8946  -28.4983   22.7077 C   0  0  0  0  0  0  0  0  0  0  0  0
    8.1301  -31.9044   21.5915 C   0  0  0  0  0  0  0  0  0  0  0  0
    0.5803  -33.0005   25.4897 C   0  0  0  0  0  0  0  0  0  0  0  0
    2.0487  -37.5144   24.2928 C   0  0  0  0  0  0  0  0  0  0  0  0
    3.0290  -38.3679   25.0768 C   0  0  0  0  0  0  0  0  0  0  0  0
    5.5951  -31.9929   32.8186 C   0  0  0  0  0  0  0  0  0  0  0  0
    4.3729  -32.0410   31.9485 C   0  0  0  0  0  0  0  0  0  0  0  0
    9.7955  -33.1832   31.5617 C   0  0  0  0  0  0  0  0  0  0  0  0
    8.6806  -32.5596   29.1617 C   0  0  0  0  0  0  0  0  0  0  0  0
    5.3042  -33.6143   28.7242 C   0  0  0  0  0  0  0  0  0  0  0  0
    6.4628  -32.0731   30.3319 C   0  0  1  0  0  0  0  0  0  0  0  0
    5.8800  -31.3269   28.0307 C   0  0  0  0  0  0  0  0  0  0  0  0
    5.2723  -31.6651   26.7078 C   0  0  0  0  0  0  0  0  0  0  0  0
    4.4127  -32.7684   26.5642 C   0  0  0  0  0  0  0  0  0  0  0  0
    4.1075  -33.6025   27.7813 C   0  0  0  0  0  0  0  0  0  0  0  0
    3.8361  -33.0174   25.3057 C   0  0  0  0  0  0  0  0  0  0  0  0
    4.1447  -32.1929   24.2118 C   0  0  0  0  0  0  0  0  0  0  0  0
    5.0130  -31.1023   24.3497 C   0  0  0  0  0  0  0  0  0  0  0  0
    5.5673  -30.8439   25.6091 C   0  0  0  0  0  0  0  0  0  0  0  0
    7.7399  -29.9234   22.3227 C   0  0  0  0  0  0  0  0  0  0  0  0
    6.8528  -31.9426   22.0922 C   0  0  0  0  0  0  0  0  0  0  0  0
    1.4903  -34.1527   25.1624 C   0  0  0  0  0  0  0  0  0  0  0  0
    2.9118  -34.1093   25.0929 C   0  0  0  0  0  0  0  0  0  0  0  0
    3.3023  -35.3802   24.7369 C   0  0  0  0  0  0  0  0  0  0  0  0
    5.6615  -32.6741   31.4697 C   0  0  0  0  0  0  0  0  0  0  0  0
   10.5926  -33.2541   30.4335 C   0  0  0  0  0  0  0  0  0  0  0  0
    7.9273  -32.5397   30.3402 C   0  0  0  0  0  0  0  0  0  0  0  0
   10.0319  -32.9185   29.2038 C   0  0  0  0  0  0  0  0  0  0  0  0
   10.8408  -33.0040   27.9456 C   0  0  0  0  0  0  0  0  0  0  0  0
   -0.0557  -32.5295   24.3808 F   0  0  0  0  0  0  0  0  0  0  0  0
    1.2695  -31.9481   26.0124 F   0  0  0  0  0  0  0  0  0  0  0  0
   -0.3923  -33.3089   26.3885 F   0  0  0  0  0  0  0  0  0  0  0  0
    5.7437  -32.2662   29.0537 N   0  0  0  0  0  0  0  0  0  0  0  0
    8.6680  -30.6544   21.7363 N   0  0  0  0  0  0  0  0  0  0  0  0
    6.6021  -30.6698   22.5369 N   0  0  0  0  0  0  0  0  0  0  0  0
    1.0417  -35.3967   24.8904 N   0  0  0  0  0  0  0  0  0  0  0  0
    2.1549  -36.1087   24.6362 N   0  0  0  0  0  0  0  0  0  0  0  0
    8.4968  -32.8167   31.5455 N   0  0  0  0  0  0  0  0  0  0  0  0
    6.4486  -30.2478   28.1571 O   0  0  0  0  0  0  0  0  0  0  0  0
  5  6  1  0
  7  8  1  0
 13 14  1  0
 14 15  4  0
 11 16  1  0
 15 16  1  0
 15 17  4  0
 17 18  4  0
 18 19  4  0
  1 19  1  0
 14 20  4  0
 19 20  4  0
  2 21  1  0
  3 22  4  0
  4 23  1  0
 17 24  1  0
 23 24  4  0
 24 25  4  0
  8 26  1  0
  7 26  1  0
 12 26  1  1
  9 27  4  0
 12 28  1  0
 10 28  4  0
 27 29  4  0
 10 29  4  0
 29 30  1  0
  4 31  1  0
  4 32  1  0
  4 33  1  0
 12 34  1  0
 11 34  1  0
 13 34  1  0
 21 35  4  0
  3 35  4  0
  1 36  1  0
 21 36  4  0
 22 36  4  0
 23 37  4  0
 37 38  4  0
 25 38  4  0
  5 38  1  0
  9 39  4  0
 28 39  4  0
 13 40  2  0
M  END
