
     RDKit          3D

 10 11  0  0  0  0  0  0  0  0999 V2000
    2.9577  109.5835   10.7177 C   0  0  0  0  0  0  0  0  0  0  0  0
    1.4488  107.6305   10.6149 N   0  0  0  0  0  0  0  0  0  0  0  0
    2.1864  108.6520    9.9862 C   0  0  0  0  0  0  0  0  0  0  0  0
    2.2129  108.7463    8.5865 C   0  0  0  0  0  0  0  0  0  0  0  0
    2.9594  109.7362    7.9368 C   0  0  0  0  0  0  0  0  0  0  0  0
    3.7170  110.6688    8.6543 C   0  0  0  0  0  0  0  0  0  0  0  0
    3.6904  110.5557   10.0450 C   0  0  0  0  0  0  0  0  0  0  0  0
    4.2998  111.2698   11.0450 N   0  0  0  0  0  0  0  0  0  0  0  0
    3.9230  110.7300   12.2429 C   0  0  0  0  0  0  0  0  0  0  0  0
    3.1085  109.7125   12.0840 N   0  0  0  0  0  0  0  0  0  0  0  0
  2  3  1  0
  1  3  4  0
  3  4  4  0
  4  5  4  0
  5  6  4  0
  6  7  4  0
  1  7  4  0
  7  8  4  0
  8  9  4  0
  1 10  4  0
  9 10  4  0
M  END
