7B2C_TP7_A_1204
     RDKit          3D

 43 42  0  0  0  0  0  0  0  0999 V2000
   -1.6238   -6.1729    1.3408 N   0  0  0  0  0  0  0  0  0  0  0  0
   -6.3739   -5.9580    1.5929 P   0  0  1  0  0  5  0  0  0  0  0  0
   -6.0026   -7.1165    0.6955 O   0  0  0  0  0  0  0  0  0  0  0  0
   -6.7144   -4.6006    0.6400 O   0  0  0  0  0  0  0  0  0  0  0  0
   -7.7461   -6.3711    2.4943 O   0  0  0  0  0  0  0  0  0  0  0  0
   -5.0637   -5.6197    2.6348 O   0  0  0  0  0  0  0  0  0  0  0  0
   -3.9324   -6.3908    2.2676 C   0  0  2  0  0  0  0  0  0  0  0  0
   -3.1952   -4.3438    1.0394 C   0  0  0  0  0  0  0  0  0  0  0  0
   -2.2594   -3.4926    0.4587 O   0  0  0  0  0  0  0  0  0  0  0  0
   -4.4181   -4.2105    0.7669 O   0  0  0  0  0  0  0  0  0  0  0  0
   -2.7455   -5.4495    1.9528 C   0  0  2  0  0  0  0  0  0  0  0  0
   -4.2825   -7.2546    1.0495 C   0  0  0  0  0  0  0  0  0  0  0  0
   -0.7973   -6.3819   -0.8379 O   0  0  0  0  0  0  0  0  0  0  0  0
   -1.6906   -6.6827    0.0004 C   0  0  0  0  0  0  0  0  0  0  0  0
   -2.8394   -7.5540   -0.4228 C   0  0  0  0  0  0  0  0  0  0  0  0
   -3.4544   -8.3367    0.7515 C   0  0  0  0  0  0  0  0  0  0  0  0
   -4.3059   -7.4771    1.7080 C   0  0  0  0  0  0  0  0  0  0  0  0
   -5.4196   -8.2265    2.4603 C   0  0  0  0  0  0  0  0  0  0  0  0
   -5.5360   -9.7040    2.0491 C   0  0  0  0  0  0  0  0  0  0  0  0
   -4.1718  -10.4005    2.0071 C   0  0  0  0  0  0  0  0  0  0  0  0
   -4.3362  -12.2157    2.0032 S   0  0  0  0  0  0  0  0  0  0  0  0
   -0.7391   -6.3116    1.8796 H   0  0  0  0  0  0  0  0  0  0  0  0
   -5.8651   -4.4014    0.1714 H   0  0  0  0  0  0  0  0  0  0  0  0
   -8.4615   -6.5004    1.8218 H   0  0  0  0  0  0  0  0  0  0  0  0
   -3.5799   -7.0867    3.0683 H   0  0  0  0  0  0  0  0  0  0  0  0
   -2.5493   -2.7549   -0.1723 H   0  0  0  0  0  0  0  0  0  0  0  0
   -2.3992   -4.9999    2.9114 H   0  0  0  0  0  0  0  0  0  0  0  0
   -4.6236   -6.6268    0.1997 H   0  0  0  0  0  0  0  0  0  0  0  0
   -3.4010   -7.8493    0.7312 H   0  0  0  0  0  0  0  0  0  0  0  0
   -5.0983   -7.9611    1.3075 H   0  0  0  0  0  0  0  0  0  0  0  0
   -3.6242   -6.9535   -0.9309 H   0  0  0  0  0  0  0  0  0  0  0  0
   -2.4525   -8.2804   -1.1698 H   0  0  0  0  0  0  0  0  0  0  0  0
   -4.1346   -9.1012    0.3160 H   0  0  0  0  0  0  0  0  0  0  0  0
   -2.6786   -8.9066    1.3037 H   0  0  0  0  0  0  0  0  0  0  0  0
   -4.7695   -6.6544    1.1209 H   0  0  0  0  0  0  0  0  0  0  0  0
   -3.6352   -6.9973    2.4538 H   0  0  0  0  0  0  0  0  0  0  0  0
   -5.2729   -8.1410    3.5540 H   0  0  0  0  0  0  0  0  0  0  0  0
   -6.3768   -7.7124    2.2290 H   0  0  0  0  0  0  0  0  0  0  0  0
   -6.2095  -10.2426    2.7504 H   0  0  0  0  0  0  0  0  0  0  0  0
   -5.9735   -9.7739    1.0324 H   0  0  0  0  0  0  0  0  0  0  0  0
   -3.6347  -10.0958    1.0840 H   0  0  0  0  0  0  0  0  0  0  0  0
   -3.5572  -10.0898    2.8774 H   0  0  0  0  0  0  0  0  0  0  0  0
   -4.9420  -12.2376    0.7322 H   0  0  0  0  0  0  0  0  0  0  0  0
  2  3  2  0
  2  4  1  1
  2  5  1  0
  2  6  1  0
  6  7  1  0
  8  9  1  0
  8 10  2  0
 11  1  1  0
  7 11  1  0
  8 11  1  0
  7 12  1  0
  1 14  1  0
 13 14  2  0
 14 15  1  0
 15 16  1  0
 16 17  1  0
 17 18  1  0
 18 19  1  0
 19 20  1  0
 20 21  1  0
  1 22  1  0
  4 23  1  0
  5 24  1  0
  7 25  1  6
  9 26  1  0
 11 27  1  6
 12 28  1  0
 12 29  1  0
 12 30  1  0
 15 31  1  0
 15 32  1  0
 16 33  1  0
 16 34  1  0
 17 35  1  0
 17 36  1  0
 18 37  1  0
 18 38  1  0
 19 39  1  0
 19 40  1  0
 20 41  1  0
 20 42  1  0
 21 43  1  0
M  END
