1N2J_PAF_A_1001
     RDKit          3D

 10  9  0  0  0  0  0  0  0  0999 V2000
   36.4657   13.4526   62.4564 O   0  0  0  0  0  0  0  0  0  0  0  0
   36.0470   12.5456   61.5022 C   0  0  0  0  0  0  0  0  0  0  0  0
   36.3671   11.3260   61.6723 O   0  0  0  0  0  0  0  0  0  0  0  0
   35.2613   13.0054   60.3437 C   0  0  2  0  0  0  0  0  0  0  0  0
   35.5402   14.3130   59.9774 O   0  0  0  0  0  0  0  0  0  0  0  0
   33.7755   12.8229   60.5648 C   0  0  1  0  0  0  0  0  0  0  0  0
   33.4599   11.4157   60.9817 C   0  0  0  0  0  0  0  0  0  0  0  0
   33.3318   13.7368   61.6834 C   0  0  0  0  0  0  0  0  0  0  0  0
   33.0812   13.2162   59.2543 C   0  0  0  0  0  0  0  0  0  0  0  0
   33.7894   12.5350   58.2600 O   0  0  0  0  0  0  0  0  0  0  0  0
  1  2  1  0
  2  3  2  0
  2  4  1  0
  4  5  1  1
  4  6  1  0
  6  7  1  1
  6  8  1  0
  6  9  1  0
  9 10  1  0
M  CHG  1   1  -1
M  END
$$$$
