1N2J_PAF_A_1001
     RDKit          3D

 10  9  0  0  0  0  0  0  0  0999 V2000
   38.1342   18.0088   64.6443 O   0  0  0  0  0  0  0  0  0  0  0  0
   38.5691   19.2549   65.0521 C   0  0  0  0  0  0  0  0  0  0  0  0
   38.7305   20.1423   64.1545 O   0  0  0  0  0  0  0  0  0  0  0  0
   38.8271   19.5142   66.4794 C   0  0  2  0  0  0  0  0  0  0  0  0
   39.1184   18.3664   67.2002 O   0  0  0  0  0  0  0  0  0  0  0  0
   37.6885   20.2716   67.1273 C   0  0  1  0  0  0  0  0  0  0  0  0
   37.4312   21.5701   66.4194 C   0  0  0  0  0  0  0  0  0  0  0  0
   36.4292   19.4429   67.0249 C   0  0  0  0  0  0  0  0  0  0  0  0
   38.0711   20.4719   68.5995 C   0  0  0  0  0  0  0  0  0  0  0  0
   39.3625   21.0058   68.5605 O   0  0  0  0  0  0  0  0  0  0  0  0
  1  2  1  0
  2  3  2  0
  2  4  1  0
  4  5  1  1
  4  6  1  0
  6  7  1  6
  6  8  1  0
  6  9  1  0
  9 10  1  0
M  CHG  1   1  -1
M  END
$$$$
