1N2J_PAF_A_1001
     RDKit          3D

 10  9  0  0  0  0  0  0  0  0999 V2000
   18.9527   13.2383   74.8489 O   0  0  0  0  0  0  0  0  0  0  0  0
   19.1941   13.0630   73.5001 C   0  0  0  0  0  0  0  0  0  0  0  0
   18.2617   12.5556   72.7987 O   0  0  0  0  0  0  0  0  0  0  0  0
   20.4924   13.4589   72.9267 C   0  0  2  0  0  0  0  0  0  0  0  0
   21.4745   13.6614   73.8839 O   0  0  0  0  0  0  0  0  0  0  0  0
   20.3648   14.6740   72.0338 C   0  0  1  0  0  0  0  0  0  0  0  0
   19.1763   14.5541   71.1246 C   0  0  0  0  0  0  0  0  0  0  0  0
   20.1526   15.8954   72.8977 C   0  0  0  0  0  0  0  0  0  0  0  0
   21.6846   14.7961   71.2610 C   0  0  0  0  0  0  0  0  0  0  0  0
   22.6765   14.5304   72.2096 O   0  0  0  0  0  0  0  0  0  0  0  0
  1  2  1  0
  2  3  2  0
  2  4  1  0
  4  5  1  1
  4  6  1  0
  6  7  1  6
  6  8  1  0
  6  9  1  0
  9 10  1  0
M  CHG  1   1  -1
M  END
$$$$
