1N2J_PAF_A_1001
     RDKit          3D

 10  9  0  0  0  0  0  0  0  0999 V2000
   27.1068   11.0453   43.2668 O   0  0  0  0  0  0  0  0  0  0  0  0
   28.1528   10.8390   44.1452 C   0  0  0  0  0  0  0  0  0  0  0  0
   28.3064    9.6640   44.6085 O   0  0  0  0  0  0  0  0  0  0  0  0
   29.0387   11.9580   44.5112 C   0  0  2  0  0  0  0  0  0  0  0  0
   30.2561   11.5451   45.0302 O   0  0  0  0  0  0  0  0  0  0  0  0
   28.3605   12.9249   45.4572 C   0  0  1  0  0  0  0  0  0  0  0  0
   27.0431   13.3867   44.9052 C   0  0  0  0  0  0  0  0  0  0  0  0
   28.0813   12.2170   46.7626 C   0  0  0  0  0  0  0  0  0  0  0  0
   29.3402   14.0838   45.6835 C   0  0  0  0  0  0  0  0  0  0  0  0
   29.8293   14.3881   44.4097 O   0  0  0  0  0  0  0  0  0  0  0  0
  1  2  1  0
  2  3  2  0
  2  4  1  0
  4  5  1  1
  4  6  1  0
  6  7  1  6
  6  8  1  0
  6  9  1  0
  9 10  1  0
M  CHG  1   1  -1
M  END
$$$$
