1N2J_PAF_A_1001
     RDKit          3D

 10  9  0  0  0  0  0  0  0  0999 V2000
   40.0932   21.3084   67.3297 O   0  0  0  0  0  0  0  0  0  0  0  0
   39.7436   20.2387   66.5286 C   0  0  0  0  0  0  0  0  0  0  0  0
   40.1611   20.2453   65.3266 O   0  0  0  0  0  0  0  0  0  0  0  0
   38.9177   19.1479   67.0754 C   0  0  2  0  0  0  0  0  0  0  0  0
   39.0770   17.9487   66.3984 O   0  0  0  0  0  0  0  0  0  0  0  0
   37.4548   19.5293   67.1397 C   0  0  1  0  0  0  0  0  0  0  0  0
   36.6345   18.4259   67.7423 C   0  0  0  0  0  0  0  0  0  0  0  0
   37.3044   20.7422   68.0282 C   0  0  0  0  0  0  0  0  0  0  0  0
   37.0218   19.8668   65.7070 C   0  0  0  0  0  0  0  0  0  0  0  0
   36.8758   18.6261   65.0795 O   0  0  0  0  0  0  0  0  0  0  0  0
  1  2  1  0
  2  3  2  0
  2  4  1  0
  4  5  1  6
  4  6  1  0
  6  7  1  1
  6  8  1  0
  6  9  1  0
  9 10  1  0
M  CHG  1   1  -1
M  END
$$$$
