1N2J_PAF_A_1001
     RDKit          3D

 10  9  0  0  0  0  0  0  0  0999 V2000
   19.3975   13.9001   73.9435 O   0  0  0  0  0  0  0  0  0  0  0  0
   20.4599   14.2291   73.1241 C   0  0  0  0  0  0  0  0  0  0  0  0
   21.0249   13.2829   72.4883 O   0  0  0  0  0  0  0  0  0  0  0  0
   20.8973   15.6317   73.0128 C   0  0  2  0  0  0  0  0  0  0  0  0
   20.3076   16.4649   73.9508 O   0  0  0  0  0  0  0  0  0  0  0  0
   20.6892   16.1756   71.6162 C   0  0  1  0  0  0  0  0  0  0  0  0
   19.2500   16.0677   71.2031 C   0  0  0  0  0  0  0  0  0  0  0  0
   21.0553   17.6416   71.6028 C   0  0  0  0  0  0  0  0  0  0  0  0
   21.6258   15.3885   70.6903 C   0  0  0  0  0  0  0  0  0  0  0  0
   20.8121   14.4098   70.1122 O   0  0  0  0  0  0  0  0  0  0  0  0
  1  2  1  0
  2  3  2  0
  2  4  1  0
  4  5  1  1
  4  6  1  0
  6  7  1  6
  6  8  1  0
  6  9  1  0
  9 10  1  0
M  CHG  1   1  -1
M  END
$$$$
