
     RDKit          3D

 24 26  0  0  0  0  0  0  0  0999 V2000
   44.8277   -8.3601  -31.2704 O   0  0  0  0  0  0  0  0  0  0  0  0
   45.1602   -8.4803  -29.9727 C   0  0  0  0  0  0  0  0  0  0  0  0
   46.3245   -8.5359  -29.6230 O   0  0  0  0  0  0  0  0  0  0  0  0
   43.9779   -8.5340  -29.0759 C   0  0  0  0  0  0  0  0  0  0  0  0
   44.1368   -8.0897  -27.7565 C   0  0  0  0  0  0  0  0  0  0  0  0
   43.0630   -8.1110  -26.8569 C   0  0  0  0  0  0  0  0  0  0  0  0
   41.8199   -8.5876  -27.2980 C   0  0  0  0  0  0  0  0  0  0  0  0
   40.6397   -8.6944  -26.6104 N   0  0  0  0  0  0  0  0  0  0  0  0
   42.7362   -9.0136  -29.5298 C   0  0  0  0  0  0  0  0  0  0  0  0
   41.6759   -9.0279  -28.6108 C   0  0  0  0  0  0  0  0  0  0  0  0
   40.3575   -9.4123  -28.6934 N   0  0  0  0  0  0  0  0  0  0  0  0
   39.6838   -9.9166  -29.8665 C   0  0  0  0  0  0  0  0  0  0  0  0
   39.7724   -9.2090  -27.4614 C   0  0  0  0  0  0  0  0  0  0  0  0
   38.3370   -9.4837  -27.1621 C   0  0  0  0  0  0  0  0  0  0  0  0
   37.5266   -8.5608  -27.8972 O   0  0  0  0  0  0  0  0  0  0  0  0
   36.1206   -8.8541  -27.8090 C   0  0  2  0  0  0  0  0  0  0  0  0
   35.6270   -9.0744  -29.2027 C   0  0  0  0  0  0  0  0  0  0  0  0
   34.4901   -8.5253  -29.6420 C   0  0  0  0  0  0  0  0  0  0  0  0
   33.6411   -7.7521  -28.9010 O   0  0  0  0  0  0  0  0  0  0  0  0
   33.9040   -7.7104  -27.4817 C   0  0  1  0  0  0  0  0  0  0  0  0
   35.4071   -7.6469  -27.1627 C   0  0  2  0  0  0  0  0  0  0  0  0
   35.9793   -6.4043  -27.6357 O   0  0  0  0  0  0  0  0  0  0  0  0
   33.1355   -6.5140  -26.8947 C   0  0  0  0  0  0  0  0  0  0  0  0
   31.7828   -6.8162  -26.5541 O   0  0  0  0  0  0  0  0  0  0  0  0
  1  2  1  0
  2  3  2  0
  2  4  1  0
  4  5  4  0
  5  6  4  0
  6  7  4  0
  7  8  4  0
  4  9  4  0
  7 10  4  0
  9 10  4  0
 10 11  4  0
 11 12  1  0
  8 13  4  0
 11 13  4  0
 13 14  1  0
 14 15  1  0
 16 15  1  6
 16 17  1  0
 17 18  2  0
 18 19  1  0
 19 20  1  0
 16 21  1  0
 20 21  1  0
 21 22  1  6
 20 23  1  6
 23 24  1  0
M  END
