7P1M_4IU_B_201
     RDKit          3D

 24 26  0  0  0  0  0  0  0  0999 V2000
   33.6983    0.0714   -0.4947 O   0  0  0  0  0  0  0  0  0  0  0  0
   33.5546   -0.9331    0.4591 C   0  0  0  0  0  0  0  0  0  0  0  0
   34.0966   -0.7262    1.5738 O   0  0  0  0  0  0  0  0  0  0  0  0
   32.8077   -2.1699    0.1748 C   0  0  0  0  0  0  0  0  0  0  0  0
   32.2432   -2.3950   -1.0807 C   0  0  0  0  0  0  0  0  0  0  0  0
   31.5567   -3.5761   -1.2767 C   0  0  0  0  0  0  0  0  0  0  0  0
   31.4381   -4.5020   -0.2520 C   0  0  0  0  0  0  0  0  0  0  0  0
   30.8372   -5.7009   -0.1807 N   0  0  0  0  0  0  0  0  0  0  0  0
   32.6863   -3.0880    1.1805 C   0  0  0  0  0  0  0  0  0  0  0  0
   32.0014   -4.2655    0.9836 C   0  0  0  0  0  0  0  0  0  0  0  0
   31.7140   -5.3471    1.7618 N   0  0  0  0  0  0  0  0  0  0  0  0
   32.1690   -5.4450    3.1237 C   0  0  0  0  0  0  0  0  0  0  0  0
   30.9974   -6.2411    1.0627 C   0  0  0  0  0  0  0  0  0  0  0  0
   30.4663   -7.5647    1.4333 C   0  0  0  0  0  0  0  0  0  0  0  0
   30.5005   -8.5140    0.4791 O   0  0  0  0  0  0  0  0  0  0  0  0
   30.4007   -9.8258    0.7654 C   0  0  2  0  0  0  0  0  0  0  0  0
   31.6488  -10.4191    1.3298 C   0  0  0  0  0  0  0  0  0  0  0  0
   32.6062  -10.8070    0.5023 C   0  0  0  0  0  0  0  0  0  0  0  0
   32.3710  -10.6289   -0.8520 O   0  0  0  0  0  0  0  0  0  0  0  0
   31.1036  -11.0099   -1.3514 C   0  0  1  0  0  0  0  0  0  0  0  0
   29.9595  -10.5935   -0.4744 C   0  0  2  0  0  0  0  0  0  0  0  0
   29.0706   -9.8561   -1.2471 O   0  0  0  0  0  0  0  0  0  0  0  0
   30.9918  -10.4016   -2.7339 C   0  0  0  0  0  0  0  0  0  0  0  0
   30.6706  -11.4093   -3.6519 O   0  0  0  0  0  0  0  0  0  0  0  0
  1  2  1  0
  2  3  2  0
  2  4  1  0
  4  5  2  0
  5  6  1  0
  6  7  2  0
  7  8  1  0
  4  9  1  0
  7 10  1  0
  9 10  2  0
 10 11  1  0
 11 12  1  0
  8 13  2  0
 11 13  1  0
 13 14  1  0
 14 15  1  0
 16 15  1  6
 16 17  1  0
 17 18  2  0
 18 19  1  0
 19 20  1  0
 16 21  1  0
 20 21  1  0
 21 22  1  6
 20 23  1  6
 23 24  1  0
M  END
$$$$
