1N46_PFA_A_462
     RDKit          3D

 48 50  0  0  0  0  0  0  0  0999 V2000
   17.6213    4.6680    5.7995 O   0  0  0  0  0  0  0  0  0  0  0  0
   18.5318    3.9013    5.9019 C   0  0  0  0  0  0  0  0  0  0  0  0
   18.5671    2.7719    6.6867 N   0  0  0  0  0  4  0  0  0  0  0  0
   19.6631    1.9590    6.7251 C   0  0  0  0  0  0  0  0  0  0  0  0
   19.7442    0.9637    7.4101 O   0  0  0  0  0  0  0  0  0  0  0  0
   19.5814    4.1877    5.1465 N   0  0  0  0  0  4  0  0  0  0  0  0
   20.7256    3.3496    5.1339 N   0  0  0  0  0  0  0  0  0  0  0  0
   20.7913    2.2876    5.8543 C   0  0  0  0  0  0  0  0  0  0  0  0
   19.7791    5.3305    4.3459 C   0  0  0  0  0  0  0  0  0  0  0  0
   18.9207    5.3570    3.1732 C   0  0  0  0  0  0  0  0  0  0  0  0
   19.0489    6.4462    2.2699 C   0  0  0  0  0  0  0  0  0  0  0  0
   18.2300    6.5500    1.0648 C   0  0  0  0  0  0  0  0  0  0  0  0
   20.6923    6.3487    4.5521 C   0  0  0  0  0  0  0  0  0  0  0  0
   20.7640    7.4783    3.7145 C   0  0  0  0  0  0  0  0  0  0  0  0
   21.8034    8.5869    3.9805 C   0  0  0  0  0  0  0  0  0  0  0  0
   19.9542    7.5095    2.5499 C   0  0  0  0  0  0  0  0  0  0  0  0
   20.1529    8.5848    1.7101 O   0  0  0  0  0  0  0  0  0  0  0  0
   21.2809    8.5990    0.9040 C   0  0  0  0  0  0  0  0  0  0  0  0
   21.7709    7.4098    0.2466 C   0  0  0  0  0  0  0  0  0  0  0  0
   21.9307    9.8784    0.7677 C   0  0  0  0  0  0  0  0  0  0  0  0
   23.0851    9.9754   -0.0507 C   0  0  0  0  0  0  0  0  0  0  0  0
   23.8417   11.3179   -0.1759 C   0  0  1  0  0  0  0  0  0  0  0  0
   25.2894   11.0954    0.3610 C   0  0  0  0  0  0  0  0  0  0  0  0
   23.8241   11.6808   -1.6819 C   0  0  0  0  0  0  0  0  0  0  0  0
   23.5952    8.8017   -0.6544 C   0  0  0  0  0  0  0  0  0  0  0  0
   22.9164    7.5625   -0.5472 C   0  0  0  0  0  0  0  0  0  0  0  0
   24.7321    8.8425   -1.4314 O   0  0  0  0  0  0  0  0  0  0  0  0
   17.7818    2.5440    7.2347 H   0  0  0  0  0  0  0  0  0  0  0  0
   21.6236    1.6786    5.8191 H   0  0  0  0  0  0  0  0  0  0  0  0
   18.2358    4.6043    3.0012 H   0  0  0  0  0  0  0  0  0  0  0  0
   17.6029    5.6868    0.9842 H   0  0  0  0  0  0  0  0  0  0  0  0
   18.8656    6.6110    0.2062 H   0  0  0  0  0  0  0  0  0  0  0  0
   17.6217    7.4285    1.1213 H   0  0  0  0  0  0  0  0  0  0  0  0
   21.3447    6.2780    5.3485 H   0  0  0  0  0  0  0  0  0  0  0  0
   22.3100    8.3874    4.9015 H   0  0  0  0  0  0  0  0  0  0  0  0
   21.3074    9.5329    4.0437 H   0  0  0  0  0  0  0  0  0  0  0  0
   22.5137    8.6096    3.1806 H   0  0  0  0  0  0  0  0  0  0  0  0
   21.3027    6.4967    0.3555 H   0  0  0  0  0  0  0  0  0  0  0  0
   21.5624   10.7090    1.2568 H   0  0  0  0  0  0  0  0  0  0  0  0
   23.4026   12.1158    0.3859 H   0  0  0  0  0  0  0  0  0  0  0  0
   25.7540   10.3007   -0.1844 H   0  0  0  0  0  0  0  0  0  0  0  0
   25.2494   10.8399    1.3991 H   0  0  0  0  0  0  0  0  0  0  0  0
   25.8579   11.9932    0.2366 H   0  0  0  0  0  0  0  0  0  0  0  0
   24.2628   10.8843   -2.2459 H   0  0  0  0  0  0  0  0  0  0  0  0
   24.3837   12.5791   -1.8387 H   0  0  0  0  0  0  0  0  0  0  0  0
   22.8136   11.8297   -2.0012 H   0  0  0  0  0  0  0  0  0  0  0  0
   23.2759    6.7481   -1.0690 H   0  0  0  0  0  0  0  0  0  0  0  0
   25.2068    9.6448   -1.5253 H   0  0  0  0  0  0  0  0  0  0  0  0
  1  2  2  0
  2  3  4  0
  3  4  4  0
  4  5  2  0
  2  6  4  0
  6  7  4  0
  4  8  4  0
  7  8  4  0
  6  9  1  0
  9 10  4  0
 10 11  4  0
 11 12  1  0
  9 13  4  0
 13 14  4  0
 14 15  1  0
 11 16  4  0
 14 16  4  0
 16 17  1  0
 17 18  1  0
 18 19  4  0
 18 20  4  0
 20 21  4  0
 21 22  1  0
 22 23  1  0
 22 24  1  0
 21 25  4  0
 19 26  4  0
 25 26  4  0
 25 27  1  0
  3 28  1  0
  8 29  1  0
 10 30  1  0
 12 31  1  0
 12 32  1  0
 12 33  1  0
 13 34  1  0
 15 35  1  0
 15 36  1  0
 15 37  1  0
 19 38  1  0
 20 39  1  0
 22 40  1  1
 23 41  1  0
 23 42  1  0
 23 43  1  0
 24 44  1  0
 24 45  1  0
 24 46  1  0
 26 47  1  0
 27 48  1  0
M  CHG  2   3   1   6   1
M  END
