@<TRIPOS>MOLECULE
1N46_PFA_A_462
 48 50 0 0 0
SMALL
GASTEIGER

@<TRIPOS>ATOM
      1 O          -2.5294    4.0881    0.7567 O.2     1  UNL1       -0.2446
      2 C          -1.6287    4.1112    1.6402 C.ar    1  UNL1        0.3502
      3 N          -1.7063    5.0191    2.6504 N.ar    1  UNL1       -0.2722
      4 C          -0.7299    5.0910    3.5910 C.ar    1  UNL1        0.2724
      5 O          -0.8050    5.9351    4.5233 O.2     1  UNL1       -0.2661
      6 N          -0.5629    3.2494    1.5814 N.ar    1  UNL1       -0.1817
      7 N           0.4046    3.3275    2.5001 N.ar    1  UNL1       -0.1651
      8 C           0.3566    4.2271    3.5132 C.ar    1  UNL1        0.1128
      9 C          -0.4363    2.2629    0.5395 C.ar    1  UNL1        0.0714
     10 C           0.7749    2.1311   -0.1533 C.ar    1  UNL1       -0.0297
     11 C           0.9270    1.1587   -1.1526 C.ar    1  UNL1       -0.0059
     12 C           2.2424    1.0111   -1.8644 C.3     1  UNL1       -0.0362
     13 C          -1.4976    1.3955    0.2382 C.ar    1  UNL1       -0.0297
     14 C          -1.3673    0.4227   -0.7640 C.ar    1  UNL1       -0.0059
     15 C          -2.5330   -0.4777   -1.0690 C.3     1  UNL1       -0.0362
     16 C          -0.1349    0.2817   -1.4398 C.ar    1  UNL1        0.1343
     17 O           0.0451   -0.7137   -2.4102 O.3     1  UNL1       -0.4555
     18 C           0.0413   -2.0901   -2.1390 C.ar    1  UNL1        0.1290
     19 C          -0.0525   -2.9796   -3.2102 C.ar    1  UNL1       -0.0159
     20 C           0.1481   -2.5950   -0.8305 C.ar    1  UNL1       -0.0124
     21 C           0.1366   -3.9816   -0.5856 C.ar    1  UNL1        0.0001
     22 C           0.2389   -4.4745    0.8518 C.3     1  UNL1       -0.0180
     23 C          -1.0216   -5.2341    1.2833 C.3     1  UNL1       -0.0585
     24 C           1.5062   -5.3076    1.0809 C.3     1  UNL1       -0.0585
     25 C           0.0277   -4.8664   -1.6844 C.ar    1  UNL1        0.1205
     26 C          -0.0623   -4.3559   -2.9866 C.ar    1  UNL1       -0.0164
     27 O           0.0095   -6.2467   -1.4898 O.3     1  UNL1       -0.5065
     28 H          -2.5204    5.6740    2.6981 H       1  UNL1        0.1735
     29 H           1.1537    4.2639    4.2446 H       1  UNL1        0.0903
     30 H           1.5981    2.7934    0.0865 H       1  UNL1        0.0643
     31 H           2.0772    0.9629   -2.9615 H       1  UNL1        0.0279
     32 H           2.7411    0.0771   -1.5302 H       1  UNL1        0.0279
     33 H           2.9170    1.8689   -1.6567 H       1  UNL1        0.0279
     34 H          -2.4243    1.4712    0.7940 H       1  UNL1        0.0643
     35 H          -2.5492   -0.7520   -2.1447 H       1  UNL1        0.0279
     36 H          -3.4940    0.0304   -0.8405 H       1  UNL1        0.0279
     37 H          -2.4637   -1.3995   -0.4549 H       1  UNL1        0.0279
     38 H          -0.1255   -2.6011   -4.2220 H       1  UNL1        0.0655
     39 H           0.2436   -1.9067   -0.0007 H       1  UNL1        0.0658
     40 H           0.3189   -3.5968    1.5320 H       1  UNL1        0.0345
     41 H          -1.1228   -6.1987    0.7455 H       1  UNL1        0.0235
     42 H          -0.9788   -5.4480    2.3726 H       1  UNL1        0.0235
     43 H          -1.9240   -4.6162    1.0874 H       1  UNL1        0.0235
     44 H           1.6282   -5.5179    2.1650 H       1  UNL1        0.0235
     45 H           2.3996   -4.7447    0.7353 H       1  UNL1        0.0235
     46 H           1.4622   -6.2771    0.5445 H       1  UNL1        0.0235
     47 H          -0.1422   -5.0294   -3.8305 H       1  UNL1        0.0655
     48 H          -0.0673   -6.8938   -2.2658 H       1  UNL1        0.2921
@<TRIPOS>BOND
     1     1     2    2
     2     2     3   ar
     3     3     4   ar
     4     4     5    2
     5     2     6   ar
     6     6     7   ar
     7     4     8   ar
     8     7     8   ar
     9     6     9    1
    10     9    10   ar
    11    10    11   ar
    12    11    12    1
    13     9    13   ar
    14    13    14   ar
    15    14    15    1
    16    11    16   ar
    17    14    16   ar
    18    16    17    1
    19    17    18    1
    20    18    19   ar
    21    18    20   ar
    22    20    21   ar
    23    21    22    1
    24    22    23    1
    25    22    24    1
    26    21    25   ar
    27    19    26   ar
    28    25    26   ar
    29    25    27    1
    30     3    28    1
    31     8    29    1
    32    10    30    1
    33    12    31    1
    34    12    32    1
    35    12    33    1
    36    13    34    1
    37    15    35    1
    38    15    36    1
    39    15    37    1
    40    19    38    1
    41    20    39    1
    42    22    40    1
    43    23    41    1
    44    23    42    1
    45    23    43    1
    46    24    44    1
    47    24    45    1
    48    24    46    1
    49    26    47    1
    50    27    48    1
