1N46_PFA_B_463
     RDKit          3D

 27 29  0  0  0  0  0  0  0  0999 V2000
    7.6990  -18.3050  -23.8490 O   0  0  0  0  0  0  0  0  0  0  0  0
    6.8810  -17.4100  -23.9170 C   0  0  0  0  0  0  0  0  0  0  0  0
    6.7080  -16.4340  -22.9800 N   0  0  0  0  0  0  0  0  0  0  0  0
    5.7590  -15.5020  -23.1320 C   0  0  0  0  0  0  0  0  0  0  0  0
    5.5340  -14.6090  -22.3300 O   0  0  0  0  0  0  0  0  0  0  0  0
    6.0900  -17.3470  -24.9940 N   0  0  0  0  0  0  0  0  0  0  0  0
    5.0670  -16.3880  -25.2240 N   0  0  0  0  0  0  0  0  0  0  0  0
    4.9180  -15.5200  -24.3430 C   0  0  0  0  0  0  0  0  0  0  0  0
    6.1570  -18.3400  -25.9590 C   0  0  0  0  0  0  0  0  0  0  0  0
    5.0460  -19.2110  -25.9130 C   0  0  0  0  0  0  0  0  0  0  0  0
    5.0250  -20.3130  -26.7970 C   0  0  0  0  0  0  0  0  0  0  0  0
    3.8500  -21.2630  -26.7680 C   0  0  0  0  0  0  0  0  0  0  0  0
    7.2480  -18.5400  -26.8770 C   0  0  0  0  0  0  0  0  0  0  0  0
    7.2200  -19.6480  -27.7980 C   0  0  0  0  0  0  0  0  0  0  0  0
    8.3630  -19.8160  -28.7930 C   0  0  0  0  0  0  0  0  0  0  0  0
    6.0720  -20.5330  -27.7590 C   0  0  0  0  0  0  0  0  0  0  0  0
    5.9590  -21.6210  -28.6640 O   0  0  0  0  0  0  0  0  0  0  0  0
    5.1950  -21.4510  -29.8090 C   0  0  0  0  0  0  0  0  0  0  0  0
    5.1830  -20.1960  -30.5360 C   0  0  0  0  0  0  0  0  0  0  0  0
    4.4270  -22.5330  -30.3150 C   0  0  0  0  0  0  0  0  0  0  0  0
    3.6790  -22.4130  -31.5130 C   0  0  0  0  0  0  0  0  0  0  0  0
    2.8480  -23.5880  -32.0930 C   0  0  0  0  0  0  0  0  0  0  0  0
    3.6190  -24.9190  -32.1390 C   0  0  0  0  0  0  0  0  0  0  0  0
    1.6140  -23.9120  -31.2490 C   0  0  0  0  0  0  0  0  0  0  0  0
    3.6800  -21.1690  -32.1860 C   0  0  0  0  0  0  0  0  0  0  0  0
    4.4040  -20.0810  -31.6880 C   0  0  0  0  0  0  0  0  0  0  0  0
    2.9600  -20.9900  -33.3600 O   0  0  0  0  0  0  0  0  0  0  0  0
  1  2  2  0
  2  3  1  0
  3  4  1  0
  4  5  2  0
  2  6  1  0
  6  7  1  0
  4  8  1  0
  7  8  2  0
  6  9  1  0
  9 10  2  0
 10 11  1  0
 11 12  1  0
  9 13  1  0
 13 14  2  0
 14 15  1  0
 11 16  2  0
 14 16  1  0
 16 17  1  0
 17 18  1  0
 18 19  2  0
 18 20  1  0
 20 21  2  0
 21 22  1  0
 22 23  1  0
 22 24  1  0
 21 25  1  0
 19 26  1  0
 25 26  2  0
 25 27  1  0
M  END
$$$$
1N46_PFA_A_462
     RDKit          3D

 27 29  0  0  0  0  0  0  0  0999 V2000
   17.2230    5.2550    6.1390 O   0  0  0  0  0  0  0  0  0  0  0  0
   18.0230    4.3770    6.2680 C   0  0  0  0  0  0  0  0  0  0  0  0
   17.9770    3.3560    7.1890 N   0  0  0  0  0  0  0  0  0  0  0  0
   18.9470    2.3970    7.2460 C   0  0  0  0  0  0  0  0  0  0  0  0
   18.9550    1.4890    8.0470 O   0  0  0  0  0  0  0  0  0  0  0  0
   19.0230    4.4100    5.4000 N   0  0  0  0  0  0  0  0  0  0  0  0
   20.0320    3.4130    5.4060 N   0  0  0  0  0  0  0  0  0  0  0  0
   20.0190    2.4460    6.2520 C   0  0  0  0  0  0  0  0  0  0  0  0
   19.2990    5.4070    4.4430 C   0  0  0  0  0  0  0  0  0  0  0  0
   20.4930    6.1760    4.7530 C   0  0  0  0  0  0  0  0  0  0  0  0
   20.8590    7.2330    3.8770 C   0  0  0  0  0  0  0  0  0  0  0  0
   22.0400    8.0590    4.1150 C   0  0  0  0  0  0  0  0  0  0  0  0
   18.5530    5.7190    3.3210 C   0  0  0  0  0  0  0  0  0  0  0  0
   18.9560    6.7020    2.3970 C   0  0  0  0  0  0  0  0  0  0  0  0
   18.0880    7.0200    1.1620 C   0  0  0  0  0  0  0  0  0  0  0  0
   20.1030    7.4820    2.6960 C   0  0  0  0  0  0  0  0  0  0  0  0
   20.3800    8.5040    1.8130 O   0  0  0  0  0  0  0  0  0  0  0  0
   21.4190    8.3390    0.9100 C   0  0  0  0  0  0  0  0  0  0  0  0
   21.6800    7.0750    0.2610 C   0  0  0  0  0  0  0  0  0  0  0  0
   22.2200    9.5120    0.6640 C   0  0  0  0  0  0  0  0  0  0  0  0
   23.2950    9.4250   -0.2570 C   0  0  0  0  0  0  0  0  0  0  0  0
   24.2110   10.6460   -0.5040 C   0  0  0  0  0  0  0  0  0  0  0  0
   23.2930   11.8890   -0.7160 C   0  0  0  0  0  0  0  0  0  0  0  0
   25.0970   10.7800    0.7600 C   0  0  0  0  0  0  0  0  0  0  0  0
   23.5830    8.1750   -0.8550 C   0  0  0  0  0  0  0  0  0  0  0  0
   22.7560    7.0450   -0.6370 C   0  0  0  0  0  0  0  0  0  0  0  0
   24.6370    8.0360   -1.7310 O   0  0  0  0  0  0  0  0  0  0  0  0
  1  2  2  0
  2  3  1  0
  3  4  1  0
  4  5  2  0
  2  6  1  0
  6  7  1  0
  4  8  1  0
  7  8  2  0
  6  9  1  0
  9 10  2  0
 10 11  1  0
 11 12  1  0
  9 13  1  0
 13 14  2  0
 14 15  1  0
 11 16  2  0
 14 16  1  0
 16 17  1  0
 17 18  1  0
 18 19  2  0
 18 20  1  0
 20 21  2  0
 21 22  1  0
 22 23  1  0
 22 24  1  0
 21 25  1  0
 19 26  1  0
 25 26  2  0
 25 27  1  0
M  END
$$$$
