
     RDKit          3D

 32 35  0  0  0  0  0  0  0  0999 V2000
   -5.0720   41.1652   14.4629 C   0  0  0  0  0  0  0  0  0  0  0  0
   -5.2881   43.9665   14.5671 C   0  0  0  0  0  0  0  0  0  0  0  0
   -5.4325   45.4685   14.6612 C   0  0  0  0  0  0  0  0  0  0  0  0
    0.9267   44.5855   16.6403 C   0  0  0  0  0  0  0  0  0  0  0  0
    1.7420   44.2998   17.7421 C   0  0  0  0  0  0  0  0  0  0  0  0
    3.0160   42.7378   19.1802 C   0  0  0  0  0  0  0  0  0  0  0  0
   -4.1677   41.9620   13.7551 C   0  0  0  0  0  0  0  0  0  0  0  0
   -6.0846   41.7539   15.2145 C   0  0  0  0  0  0  0  0  0  0  0  0
   -6.1932   43.1424   15.2650 C   0  0  0  0  0  0  0  0  0  0  0  0
   -1.5998   45.3940   12.3569 C   0  0  0  0  0  0  0  0  0  0  0  0
   -0.2570   46.1424   12.1615 C   0  0  0  0  0  0  0  0  0  0  0  0
    0.0118   46.9774   11.1025 C   0  0  0  0  0  0  0  0  0  0  0  0
    0.9191   46.1530   12.9306 C   0  0  0  0  0  0  0  0  0  0  0  0
    2.1541   42.9866   17.9997 C   0  0  0  0  0  0  0  0  0  0  0  0
    1.7459   41.9584   17.1455 C   0  0  0  0  0  0  0  0  0  0  0  0
    0.9318   42.2483   16.0470 C   0  0  0  0  0  0  0  0  0  0  0  0
    0.5162   43.5580   15.7903 C   0  0  0  0  0  0  0  0  0  0  0  0
   -1.4243   44.5273   14.7941 C   0  0  0  0  0  0  0  0  0  0  0  0
   -2.0624   44.7060   13.4638 C   0  0  0  0  0  0  0  0  0  0  0  0
   -3.3285   44.1930   13.0472 C   0  0  0  0  0  0  0  0  0  0  0  0
   -4.2666   43.3658   13.7973 C   0  0  0  0  0  0  0  0  0  0  0  0
   -6.4685   45.8489   15.4615 F   0  0  0  0  0  0  0  0  0  0  0  0
   -4.3223   46.0929   15.1306 F   0  0  0  0  0  0  0  0  0  0  0  0
   -5.6926   46.0482   13.4522 F   0  0  0  0  0  0  0  0  0  0  0  0
   -3.6275   44.5898   11.8065 N   0  0  0  0  0  0  0  0  0  0  0  0
    1.2823   47.4336   11.2965 N   0  0  0  0  0  0  0  0  0  0  0  0
    1.8578   46.9520   12.4115 N   0  0  0  0  0  0  0  0  0  0  0  0
    2.9327   43.3055   20.2536 O   0  0  0  0  0  0  0  0  0  0  0  0
    3.9418   41.7880   18.9609 O   0  0  0  0  0  0  0  0  0  0  0  0
   -0.2725   43.6940   14.6832 O   0  0  0  0  0  0  0  0  0  0  0  0
   -2.5499   45.3320   11.3790 O   0  0  0  0  0  0  0  0  0  0  0  0
   -2.9450   41.1443   12.8422 Cl  0  0  0  0  0  0  0  0  0  0  0  0
  2  3  1  0
  4  5  4  0
  1  7  4  0
  1  8  4  0
  2  9  4  0
  8  9  4  0
 10 11  1  0
 11 12  4  0
 11 13  4  0
  5 14  4  0
  6 14  1  0
 14 15  4  0
 15 16  4  0
 16 17  4  0
  4 17  4  0
 10 19  4  0
 18 19  1  0
 19 20  4  0
 20 21  1  0
  7 21  4  0
  2 21  4  0
  3 22  1  0
  3 23  1  0
  3 24  1  0
 20 25  4  0
 12 26  4  0
 26 27  4  0
 13 27  4  0
  6 28  2  0
  6 29  1  0
 18 30  1  0
 17 30  1  0
 25 31  4  0
 10 31  4  0
  7 32  1  0
M  END
