
     RDKit          3D

 44 51  0  0  0  0  0  0  0  0999 V2000
   -5.8320    3.2725  -22.5270 C   0  0  0  0  0  0  0  0  0  0  0  0
   -5.7766    3.2965  -23.9129 C   0  0  0  0  0  0  0  0  0  0  0  0
   -4.6518    3.2880  -21.8071 C   0  0  0  0  0  0  0  0  0  0  0  0
   -3.3078    3.3853  -23.8792 C   0  0  0  0  0  0  0  0  0  0  0  0
   -3.4020    3.3385  -22.4451 C   0  0  0  0  0  0  0  0  0  0  0  0
   -4.5480    3.3457  -24.5902 C   0  0  0  0  0  0  0  0  0  0  0  0
   -3.4104    3.3885  -26.7278 C   0  0  0  0  0  0  0  0  0  0  0  0
    5.1090    0.7961  -20.3627 C   0  0  0  0  0  0  0  0  0  0  0  0
    5.1165    3.0460  -21.5859 C   0  0  0  0  0  0  0  0  0  0  0  0
   -4.5796    3.3514  -25.9908 C   0  0  0  0  0  0  0  0  0  0  0  0
    1.7966    3.7291  -23.1031 C   0  0  0  0  0  0  0  0  0  0  0  0
    1.1461    4.9156  -23.4407 C   0  0  0  0  0  0  0  0  0  0  0  0
    2.9827    6.1218  -22.8044 C   0  0  0  0  0  0  0  0  0  0  0  0
    3.0915    3.8491  -22.5715 C   0  0  0  0  0  0  0  0  0  0  0  0
    1.1256    2.5211  -23.3394 C   0  0  0  0  0  0  0  0  0  0  0  0
   -0.7580    3.5903  -24.1161 C   0  0  0  0  0  0  0  0  0  0  0  0
   -0.1430    4.8302  -23.9517 C   0  0  0  0  0  0  0  0  0  0  0  0
   -2.1075    3.4621  -24.6796 C   0  0  0  0  0  0  0  0  0  0  0  0
    4.6887    7.2547  -21.6629 C   0  0  0  0  0  0  0  0  0  0  0  0
    3.8991    1.6621  -23.2209 C   0  0  0  0  0  0  0  0  0  0  0  0
    4.7827    0.4713  -22.7389 C   0  0  0  0  0  0  0  0  0  0  0  0
    5.9244    1.7600  -21.2303 C   0  0  0  0  0  0  0  0  0  0  0  0
    4.3379   -0.0616  -21.3729 C   0  0  0  0  0  0  0  0  0  0  0  0
   -2.1854    3.4439  -26.0907 C   0  0  0  0  0  0  0  0  0  0  0  0
    5.7325    8.3748  -21.9158 C   0  0  0  0  0  0  0  0  0  0  0  0
    5.1511    9.5183  -22.7675 C   0  0  0  0  0  0  0  0  0  0  0  0
    5.6752   10.7750  -22.1078 C   0  0  0  0  0  0  0  0  0  0  0  0
    5.7740   10.3918  -20.6400 C   0  0  0  0  0  0  0  0  0  0  0  0
    7.6351    8.8193  -20.5222 C   0  0  0  0  0  0  0  0  0  0  0  0
    7.9298    7.5829  -21.3443 C   0  0  0  0  0  0  0  0  0  0  0  0
    7.0076    7.7701  -22.5324 C   0  0  0  0  0  0  0  0  0  0  0  0
   -2.2592    3.3146  -21.5724 C   0  0  0  0  0  0  0  0  0  0  0  0
   -1.3447    3.2912  -20.7932 C   0  0  0  0  0  0  0  0  0  0  0  0
   -0.8016    5.9527  -24.2909 F   0  0  0  0  0  0  0  0  0  0  0  0
    6.9153   11.0523  -22.5971 F   0  0  0  0  0  0  0  0  0  0  0  0
   -4.7311    3.2488  -20.4666 F   0  0  0  0  0  0  0  0  0  0  0  0
    1.7343    6.1103  -23.2839 N   0  0  0  0  0  0  0  0  0  0  0  0
    3.6848    5.0459  -22.4416 N   0  0  0  0  0  0  0  0  0  0  0  0
   -0.1260    2.4245  -23.8402 N   0  0  0  0  0  0  0  0  0  0  0  0
    3.7847    2.6896  -22.1502 N   0  0  0  0  0  0  0  0  0  0  0  0
    6.1592    0.9509  -22.4507 N   0  0  0  0  0  0  0  0  0  0  0  0
    6.1743    8.9727  -20.6150 N   0  0  0  0  0  0  0  0  0  0  0  0
    3.6407    7.3189  -22.6364 O   0  0  0  0  0  0  0  0  0  0  0  0
   -3.5113    3.3780  -28.0863 O   0  0  0  0  0  0  0  0  0  0  0  0
  1  2  4  0
  1  3  4  0
  4  5  4  0
  3  5  4  0
  4  6  4  0
  2  6  4  0
  7 10  4  0
  6 10  4  0
 11 12  4  0
 11 14  4  0
 11 15  4  0
 16 17  4  0
 12 17  4  0
 16 18  1  0
  4 18  4  0
 21 20  1  0
 22  9  1  0
  8 22  1  0
 21 23  1  0
  8 23  1  0
  7 24  4  0
 18 24  4  0
 25 19  1  0
 25 26  1  0
 26 27  1  0
 27 28  1  0
 29 30  1  0
 30 31  1  0
 25 31  1  0
  5 32  1  0
 32 33  3  0
 17 34  1  0
 27 35  1  0
  3 36  1  0
 12 37  4  0
 13 37  4  0
 14 38  4  0
 13 38  4  0
 15 39  4  0
 16 39  4  0
  9 40  1  0
 14 40  1  0
 20 40  1  0
 22 41  1  0
 21 41  1  0
 29 42  1  0
 28 42  1  0
 25 42  1  0
 13 43  1  0
 19 43  1  0
  7 44  1  0
M  END
