1Z95_198_A_501
     RDKit          3D

 29 30  0  0  0  0  0  0  0  0999 V2000
   32.8839   -0.5024    8.0498 C   0  0  0  0  0  0  0  0  0  0  0  0
   33.9701   -0.3081    8.8986 C   0  0  0  0  0  0  0  0  0  0  0  0
   34.7665   -1.3895    9.2635 C   0  0  0  0  0  0  0  0  0  0  0  0
   35.8196   -1.2102   10.0854 F   0  0  0  0  0  0  0  0  0  0  0  0
   34.4796   -2.6624    8.7806 C   0  0  0  0  0  0  0  0  0  0  0  0
   33.3949   -2.8555    7.9308 C   0  0  0  0  0  0  0  0  0  0  0  0
   32.5973   -1.7761    7.5663 C   0  0  0  0  0  0  0  0  0  0  0  0
   31.2203   -2.0328    6.5199 S   0  0  1  0  0  0  0  0  0  0  0  0
   31.5374   -1.4963    5.1551 O   0  0  0  0  0  0  0  0  0  0  0  0
   30.9256   -3.5001    6.4302 O   0  0  0  0  0  0  0  0  0  0  0  0
   29.7689   -1.1606    7.2164 C   0  0  0  0  0  0  0  0  0  0  0  0
   28.7971   -0.5979    6.1755 C   0  0  1  0  0  0  0  0  0  0  0  0
   28.6182   -1.5588    5.1319 O   0  0  0  0  0  0  0  0  0  0  0  0
   27.4483   -0.2823    6.8254 C   0  0  0  0  0  0  0  0  0  0  0  0
   29.3632    0.6856    5.5625 C   0  0  0  0  0  0  0  0  0  0  0  0
   30.3610    1.2231    6.0423 O   0  0  0  0  0  0  0  0  0  0  0  0
   28.7554    1.0651    4.4409 N   0  0  0  0  0  0  0  0  0  0  0  0
   27.6744    1.8416    4.3576 C   0  0  0  0  0  0  0  0  0  0  0  0
   26.7762    2.0193    5.4077 C   0  0  0  0  0  0  0  0  0  0  0  0
   27.3810    2.4070    3.1214 C   0  0  0  0  0  0  0  0  0  0  0  0
   26.2114    3.1419    2.9586 C   0  0  0  0  0  0  0  0  0  0  0  0
   25.3244    3.3118    4.0176 C   0  0  0  0  0  0  0  0  0  0  0  0
   24.1669    4.1105    3.7488 C   0  0  0  0  0  0  0  0  0  0  0  0
   23.2489    4.7425    3.5184 N   0  0  0  0  0  0  0  0  0  0  0  0
   25.5888    2.7413    5.2674 C   0  0  0  0  0  0  0  0  0  0  0  0
   24.6403    2.8586    6.4761 C   0  0  1  0  0  0  0  0  0  0  0  0
   24.7828    4.0549    7.0381 F   0  0  0  0  0  0  0  0  0  0  0  0
   23.3521    2.7056    6.1820 F   0  0  0  0  0  0  0  0  0  0  0  0
   24.8961    1.9409    7.4054 F   0  0  0  0  0  0  0  0  0  0  0  0
  1  2  2  0
  2  3  1  0
  3  4  1  0
  3  5  2  0
  5  6  1  0
  1  7  1  0
  6  7  2  0
  7  8  1  0
  8  9  2  0
  8 10  2  0
  8 11  1  1
 11 12  1  0
 12 13  1  0
 12 14  1  1
 12 15  1  0
 15 16  2  0
 15 17  1  0
 17 18  1  0
 18 19  2  0
 18 20  1  0
 20 21  2  0
 21 22  1  0
 22 23  1  0
 23 24  3  0
 19 25  1  0
 22 25  2  0
 25 26  1  0
 26 27  1  1
 26 28  1  0
 26 29  1  0
M  END
