8G43_ZU6_A_1304
     RDKit          3D

 36 37  0  0  0  0  0  0  0  0999 V2000
   -4.2645    3.5897    7.6013 C   0  0  0  0  0  0  0  0  0  0  0  0
   -3.2133    4.5124    7.6032 C   0  0  0  0  0  0  0  0  0  0  0  0
   -0.7906    4.9491    7.7411 C   0  0  0  0  0  0  0  0  0  0  0  0
    1.9642    7.3539    6.4630 O   0  0  0  0  0  0  0  0  0  0  0  0
    1.7116    6.1192    6.5082 C   0  0  0  0  0  0  0  0  0  0  0  0
    1.5599    5.3730    5.2930 N   0  0  0  0  0  0  0  0  0  0  0  0
    0.5538    5.7254    4.2993 C   0  0  2  0  0  0  0  0  0  0  0  0
    1.6126    5.4400    7.8462 C   0  0  1  0  0  0  0  0  0  0  0  0
    0.4940    4.4701    7.8706 N   0  0  0  0  0  0  0  0  0  0  0  0
   -0.9962    6.1909    7.6255 O   0  0  0  0  0  0  0  0  0  0  0  0
   -1.8834    4.0671    7.7334 C   0  0  0  0  0  0  0  0  0  0  0  0
   -3.9998    2.2233    7.7285 C   0  0  0  0  0  0  0  0  0  0  0  0
   -2.6828    1.7742    7.8576 C   0  0  0  0  0  0  0  0  0  0  0  0
   -1.6269    2.6932    7.8595 C   0  0  0  0  0  0  0  0  0  0  0  0
   -0.3531    2.2590    7.9850 N   0  0  0  0  0  0  0  0  0  0  0  0
    0.7082    3.1100    7.9933 C   0  0  0  0  0  0  0  0  0  0  0  0
    2.1029    2.5267    8.1562 C   0  0  1  0  0  0  0  0  0  0  0  0
    2.1363    1.0604    8.6223 C   0  0  1  0  0  0  0  0  0  0  0  0
    0.7766    0.4289    8.5923 C   0  0  0  0  0  0  0  0  0  0  0  0
   -0.2894    1.1016    8.0029 O   0  0  0  0  0  0  0  0  0  0  0  0
    0.5973   -0.7092    9.1027 O   0  0  0  0  0  0  0  0  0  0  0  0
   -5.2856    3.9346    7.5014 H   0  0  0  0  0  0  0  0  0  0  0  0
   -3.4423    5.5663    7.5035 H   0  0  0  0  0  0  0  0  0  0  0  0
    2.1712    4.5469    5.1097 H   0  0  0  0  0  0  0  0  0  0  0  0
    0.0392    4.8088    3.9415 H   0  0  0  0  0  0  0  0  0  0  0  0
    1.0380    6.2260    3.4345 H   0  0  0  0  0  0  0  0  0  0  0  0
   -0.1984    6.4064    4.7503 H   0  0  0  0  0  0  0  0  0  0  0  0
    2.5910    4.9814    8.0832 H   0  0  0  0  0  0  0  0  0  0  0  0
    1.4563    6.2030    8.6410 H   0  0  0  0  0  0  0  0  0  0  0  0
   -4.8157    1.5122    7.7270 H   0  0  0  0  0  0  0  0  0  0  0  0
   -2.4847    0.7139    7.9562 H   0  0  0  0  0  0  0  0  0  0  0  0
    2.6231    2.5705    7.1761 H   0  0  0  0  0  0  0  0  0  0  0  0
    2.6776    3.1464    8.8783 H   0  0  0  0  0  0  0  0  0  0  0  0
    2.8453    0.4753    7.9971 H   0  0  0  0  0  0  0  0  0  0  0  0
    2.5134    1.0254    9.6673 H   0  0  0  0  0  0  0  0  0  0  0  0
   -1.2374    0.9625    8.3318 H   0  0  0  0  0  0  0  0  0  0  0  0
  1  2  2  0
  4  5  2  0
  5  6  1  0
  6  7  1  0
  5  8  1  0
  3  9  1  0
  8  9  1  0
  3 10  2  0
  2 11  1  0
  3 11  1  0
  1 12  1  0
 12 13  2  0
 13 14  1  0
 11 14  2  0
 14 15  1  0
 15 16  2  0
  9 16  1  0
 16 17  1  0
 17 18  1  0
 18 19  1  0
 19 20  1  0
 19 21  2  0
  1 22  1  0
  2 23  1  0
  6 24  1  0
  7 25  1  6
  7 26  1  0
  7 27  1  0
  8 28  1  1
  8 29  1  0
 12 30  1  0
 13 31  1  0
 17 32  1  6
 17 33  1  0
 18 34  1  6
 18 35  1  0
 20 36  1  0
M  END
