7R6J_2I7_B_901
     RDKit          3D

 33 36  0  0  0  0  0  0  0  0999 V2000
   -8.6103  -34.4824  -41.1368 N   0  0  0  0  0  0  0  0  0  0  0  0
  -15.4447  -42.9878  -36.6453 N   0  0  0  0  0  0  0  0  0  0  0  0
   -8.9862  -33.6857  -42.3255 C   0  0  0  0  0  0  0  0  0  0  0  0
   -7.2063  -34.5312  -41.0323 C   0  0  2  0  0  0  0  0  0  0  0  0
   -6.6240  -35.7292  -40.3898 C   0  0  0  0  0  0  0  0  0  0  0  0
   -9.4353  -34.1905  -40.0393 C   0  0  0  0  0  0  0  0  0  0  0  0
  -10.8708  -34.4961  -40.1158 C   0  0  0  0  0  0  0  0  0  0  0  0
  -12.6321  -36.1046  -39.6636 C   0  0  0  0  0  0  0  0  0  0  0  0
  -15.2811  -38.0488  -36.0409 C   0  0  0  0  0  0  0  0  0  0  0  0
  -16.7139  -38.7465  -34.1252 C   0  0  0  0  0  0  0  0  0  0  0  0
  -14.9211  -40.6207  -36.8062 C   0  0  0  0  0  0  0  0  0  0  0  0
  -14.3737  -44.6113  -37.9845 C   0  0  0  0  0  0  0  0  0  0  0  0
  -13.6243  -43.6046  -38.5869 C   0  0  0  0  0  0  0  0  0  0  0  0
  -14.3327  -39.5982  -37.5164 C   0  0  0  0  0  0  0  0  0  0  0  0
  -13.1721  -33.9651  -40.6827 C   0  0  0  0  0  0  0  0  0  0  0  0
   -6.5769  -33.2211  -40.6207 C   0  0  2  0  0  0  0  0  0  0  0  0
  -13.1929  -37.3694  -39.1575 C   0  0  0  0  0  0  0  0  0  0  0  0
  -14.4974  -38.2515  -37.1481 C   0  0  0  0  0  0  0  0  0  0  0  0
  -15.8775  -39.0603  -35.3179 C   0  0  0  0  0  0  0  0  0  0  0  0
  -15.6991  -40.3603  -35.6999 C   0  0  0  0  0  0  0  0  0  0  0  0
  -14.7269  -42.0058  -37.2195 C   0  0  0  0  0  0  0  0  0  0  0  0
  -15.2908  -44.2809  -37.0033 C   0  0  0  0  0  0  0  0  0  0  0  0
   -7.1673  -32.1297  -41.4869 C   0  0  1  0  0  0  0  0  0  0  0  0
  -13.5513  -35.1949  -40.1965 C   0  0  0  0  0  0  0  0  0  0  0  0
  -11.8287  -33.6423  -40.6306 C   0  0  0  0  0  0  0  0  0  0  0  0
   -7.9948  -32.6137  -42.6236 C   0  0  1  0  0  0  0  0  0  0  0  0
  -11.3303  -35.7152  -39.6458 C   0  0  0  0  0  0  0  0  0  0  0  0
  -13.8564  -37.2629  -37.9043 N   0  0  0  0  0  0  0  0  0  0  0  0
  -13.8369  -42.3352  -38.1731 N   0  0  0  0  0  0  0  0  0  0  0  0
   -5.1949  -33.3873  -40.8443 O   0  0  0  0  0  0  0  0  0  0  0  0
   -7.8152  -31.1395  -40.7747 O   0  0  0  0  0  0  0  0  0  0  0  0
   -7.2156  -32.9504  -43.7436 O   0  0  0  0  0  0  0  0  0  0  0  0
   -6.3217  -35.4684  -39.0457 O   0  0  0  0  0  0  0  0  0  0  0  0
  3  1  1  1
  4  1  1  1
  4  5  1  0
  6  1  1  1
  6  7  1  0
 12 13  1  0
 11 14  2  0
  4 16  1  0
  8 17  1  0
 14 18  1  0
  9 18  2  0
  9 19  1  0
 10 19  1  1
 11 20  1  0
 19 20  2  0
  2 21  2  0
 11 21  1  0
 12 22  2  0
  2 22  1  0
 16 23  1  0
  8 24  1  0
 15 24  2  0
  7 25  2  0
 15 25  1  0
 23 26  1  0
  3 26  1  0
  7 27  1  0
  8 27  2  0
 17 28  1  6
 18 28  1  0
 13 29  2  0
 21 29  1  0
 16 30  1  6
 23 31  1  1
 26 32  1  6
  5 33  1  1
M  END
$$$$
