8AY3_OE3_A_501
     RDKit          3D

 45 47  0  0  0  0  0  0  0  0999 V2000
    1.2068    3.7277   -2.7244 C   0  0  0  0  0  0  0  0  0  0  0  0
    4.1701    5.7830   -0.5244 N   0  0  0  0  0  4  0  0  0  0  0  0
    3.5277    4.3378   -2.3973 C   0  0  0  0  0  0  0  0  0  0  0  0
    3.2051    5.0943   -1.2428 C   0  0  0  0  0  0  0  0  0  0  0  0
    1.8438    5.1210   -0.8170 C   0  0  0  0  0  0  0  0  0  0  0  0
    0.8637    4.4359   -1.5684 C   0  0  0  0  0  0  0  0  0  0  0  0
    1.5020    5.8249    0.3586 C   0  0  0  0  0  0  0  0  0  0  0  0
    5.5867    5.8252   -0.9579 C   0  0  0  0  0  0  0  0  0  0  0  0
    0.1605    2.9676   -3.4908 C   0  0  0  0  0  0  0  0  0  0  0  0
    1.9348    4.1535    1.1587 C   0  0  0  0  0  0  0  0  0  0  0  0
    0.0846    5.8966    0.8723 C   0  0  0  0  0  0  0  0  0  0  0  0
    0.0045    3.6538   -0.2256 C   0  0  0  0  0  0  0  0  0  0  0  0
    1.1778    3.2378    0.4205 C   0  0  0  0  0  0  0  0  0  0  0  0
    1.5221    5.4856    1.2568 C   0  0  0  0  0  0  0  0  0  0  0  0
    0.3503    5.9031    0.6193 C   0  0  0  0  0  0  0  0  0  0  0  0
   -0.4093    4.9896   -0.1183 C   0  0  0  0  0  0  0  0  0  0  0  0
    6.2985    4.5204   -0.6098 C   0  0  0  0  0  0  0  0  0  0  0  0
    2.5433    3.6666   -3.1197 C   0  0  0  0  0  0  0  0  0  0  0  0
    2.5088    6.4602    1.0828 C   0  0  0  0  0  0  0  0  0  0  0  0
    3.8276    6.4285    0.6409 C   0  0  0  0  0  0  0  0  0  0  0  0
   -1.1236    3.0688   -2.7945 N   0  0  0  0  0  0  0  0  0  0  0  0
   -2.3154    2.3878   -0.5325 O   0  0  0  0  0  0  0  0  0  0  0  0
   -0.2910    1.1582   -1.1579 O   0  0  0  0  0  0  0  0  0  0  0  0
    4.7036    7.0086    1.3409 O   0  0  0  0  0  0  0  0  0  0  0  0
   -0.9547    2.5080   -1.1583 S   0  0  2  0  0  6  0  0  0  0  0  0
    4.5394    4.2284   -2.7541 H   0  0  0  0  0  0  0  0  0  0  0  0
   -0.1742    4.4375   -1.2630 H   0  0  0  0  0  0  0  0  0  0  0  0
    5.6743    6.0486   -2.0407 H   0  0  0  0  0  0  0  0  0  0  0  0
    6.1317    6.6652   -0.4743 H   0  0  0  0  0  0  0  0  0  0  0  0
    0.4771    1.9043   -3.5726 H   0  0  0  0  0  0  0  0  0  0  0  0
    0.0726    3.3695   -4.5255 H   0  0  0  0  0  0  0  0  0  0  0  0
    2.8407    3.8303    1.6550 H   0  0  0  0  0  0  0  0  0  0  0  0
    0.0092    6.5078    1.7969 H   0  0  0  0  0  0  0  0  0  0  0  0
   -0.5712    6.3618    0.1065 H   0  0  0  0  0  0  0  0  0  0  0  0
   -0.2822    4.8756    1.1087 H   0  0  0  0  0  0  0  0  0  0  0  0
    1.5061    2.2085    0.3546 H   0  0  0  0  0  0  0  0  0  0  0  0
    2.1090    6.1933    1.8280 H   0  0  0  0  0  0  0  0  0  0  0  0
    0.0301    6.9340    0.6973 H   0  0  0  0  0  0  0  0  0  0  0  0
   -1.3160    5.3235   -0.6066 H   0  0  0  0  0  0  0  0  0  0  0  0
    5.8000    3.6579   -1.0985 H   0  0  0  0  0  0  0  0  0  0  0  0
    6.2891    4.3653    0.4898 H   0  0  0  0  0  0  0  0  0  0  0  0
    7.3526    4.5665   -0.9553 H   0  0  0  0  0  0  0  0  0  0  0  0
    2.8274    3.0901   -3.9923 H   0  0  0  0  0  0  0  0  0  0  0  0
    2.2723    6.9882    1.9998 H   0  0  0  0  0  0  0  0  0  0  0  0
   -1.8020    2.4284   -3.2684 H   0  0  0  0  0  0  0  0  0  0  0  0
  2  4  4  0
  3  4  4  0
  4  5  4  0
  5  6  4  0
  1  6  4  0
  5  7  4  0
  2  8  1  0
  1  9  1  0
  7 11  1  0
 10 13  4  0
 12 13  4  0
 10 14  4  0
 14 15  4  0
 12 16  4  0
 15 16  4  0
  8 17  1  0
  3 18  4  0
  1 18  4  0
  7 19  4  0
  2 20  4  0
 19 20  4  0
  9 21  1  0
 20 24  2  0
 25 21  1  6
 23 25  2  0
 12 25  1  0
 22 25  2  0
  3 26  1  0
  6 27  1  0
  8 28  1  0
  8 29  1  0
  9 30  1  0
  9 31  1  0
 10 32  1  0
 11 33  1  0
 11 34  1  0
 11 35  1  0
 13 36  1  0
 14 37  1  0
 15 38  1  0
 16 39  1  0
 17 40  1  0
 17 41  1  0
 17 42  1  0
 18 43  1  0
 19 44  1  0
 21 45  1  0
M  CHG  1   2   1
M  END
