
     RDKit          3D

 29 31  0  0  0  0  0  0  0  0999 V2000
  -19.1021  -22.5406    0.0729 N   0  0  0  0  0  0  0  0  0  0  0  0
  -22.6800  -24.8358    2.8272 C   0  0  0  0  0  0  0  0  0  0  0  0
  -22.4029  -23.5456    3.2761 C   0  0  0  0  0  0  0  0  0  0  0  0
  -22.0693  -19.6596    1.3854 N   0  0  0  0  0  0  0  0  0  0  0  0
  -21.6408  -22.6799    2.4862 C   0  0  0  0  0  0  0  0  0  0  0  0
  -23.9723  -15.9244    2.3809 O   0  0  0  0  0  0  0  0  0  0  0  0
  -20.7033  -20.9144   -0.1101 C   0  0  0  0  0  0  0  0  0  0  0  0
  -21.4345  -24.4109    0.8176 C   0  0  0  0  0  0  0  0  0  0  0  0
  -22.1941  -25.2759    1.6006 C   0  0  0  0  0  0  0  0  0  0  0  0
  -23.6600  -16.3586    4.5676 N   0  0  0  0  0  0  0  0  0  0  0  0
  -21.1576  -23.1030    1.2385 C   0  0  0  0  0  0  0  0  0  0  0  0
  -20.3554  -22.1973    0.4225 C   0  0  0  0  0  0  0  0  0  0  0  0
  -19.5926  -20.5325   -0.8398 C   0  0  0  0  0  0  0  0  0  0  0  0
  -23.6714  -16.7288    3.2555 C   0  0  0  0  0  0  0  0  0  0  0  0
  -23.2194  -18.1467    2.9965 C   0  0  0  0  0  0  0  0  0  0  0  0
  -22.5647  -18.3084    1.6136 C   0  0  2  0  0  0  0  0  0  0  0  0
  -23.5722  -17.9399    0.5229 C   0  0  0  0  0  0  0  0  0  0  0  0
  -24.8583  -18.5111    0.4887 C   0  0  0  0  0  0  0  0  0  0  0  0
  -25.7621  -18.1682   -0.5200 C   0  0  0  0  0  0  0  0  0  0  0  0
  -25.3901  -17.2510   -1.4980 C   0  0  0  0  0  0  0  0  0  0  0  0
  -26.2802  -16.9316   -2.4540 F   0  0  0  0  0  0  0  0  0  0  0  0
  -24.1144  -16.6953   -1.4979 C   0  0  0  0  0  0  0  0  0  0  0  0
  -23.6305  -15.6086   -2.7476 Cl  0  0  0  0  0  0  0  0  0  0  0  0
  -23.2044  -17.0385   -0.4939 C   0  0  0  0  0  0  0  0  0  0  0  0
  -21.9197  -20.1415    0.0981 C   0  0  0  0  0  0  0  0  0  0  0  0
  -22.7380  -19.9459   -0.7954 O   0  0  0  0  0  0  0  0  0  0  0  0
  -18.6794  -21.5311   -0.6943 N   0  0  0  0  0  0  0  0  0  0  0  0
  -23.6170  -25.8967    3.8033 Cl  0  0  0  0  0  0  0  0  0  0  0  0
  -20.9376  -24.8790   -0.3383 F   0  0  0  0  0  0  0  0  0  0  0  0
  2  3  4  0
  3  5  4  0
  2  9  4  0
  8  9  4  0
  8 11  4  0
  5 11  4  0
 11 12  1  0
  7 12  4  0
  1 12  4  0
  7 13  4  0
  6 14  2  0
 10 14  1  0
 14 15  1  0
 16 15  1  1
  4 16  1  0
 16 17  1  0
 17 18  4  0
 18 19  4  0
 19 20  4  0
 20 21  1  0
 20 22  4  0
 22 23  1  0
 17 24  4  0
 22 24  4  0
  4 25  1  0
  7 25  1  0
 25 26  2  0
  1 27  4  0
 13 27  4  0
  2 28  1  0
  8 29  1  0
M  END
