7JUD_MMA_A_803
     RDKit          3D

 13 13  0  0  0  0  0  0  0  0999 V2000
  -13.4678   -6.9713   10.7697 C   0  0  1  0  0  0  0  0  0  0  0  0
  -12.8426   -6.8543    9.4178 C   0  0  2  0  0  0  0  0  0  0  0  0
  -12.2470   -8.0955    8.8570 C   0  0  2  0  0  0  0  0  0  0  0  0
  -12.7246   -9.3815    9.4480 C   0  0  1  0  0  0  0  0  0  0  0  0
  -14.0888   -9.0821   10.0665 C   0  0  1  0  0  0  0  0  0  0  0  0
  -14.5928  -10.4043   10.6056 C   0  0  0  0  0  0  0  0  0  0  0  0
  -14.9860   -5.3980    9.9658 C   0  0  0  0  0  0  0  0  0  0  0  0
  -14.6135   -6.2555   10.9486 O   0  0  0  0  0  0  0  0  0  0  0  0
  -11.7875   -5.9134    9.4606 O   0  0  0  0  0  0  0  0  0  0  0  0
  -10.8434   -8.1023    8.9187 O   0  0  0  0  0  0  0  0  0  0  0  0
  -12.8808  -10.4029    8.5443 O   0  0  0  0  0  0  0  0  0  0  0  0
  -13.7790   -8.2765   11.1564 O   0  0  0  0  0  0  0  0  0  0  0  0
  -15.6081  -10.2517   11.5187 O   0  0  0  0  0  0  0  0  0  0  0  0
  1  2  1  0
  2  3  1  0
  3  4  1  0
  4  5  1  0
  5  6  1  1
  1  8  1  6
  7  8  1  0
  2  9  1  1
  3 10  1  1
  4 11  1  6
  1 12  1  0
  5 12  1  0
  6 13  1  0
M  END
$$$$
