
     RDKit          3D

 50 53  0  0  0  0  0  0  0  0999 V2000
  -78.6714   -8.6965   18.8856 O   0  0  0  0  0  0  0  0  0  0  0  0
  -79.3359   -9.4172   19.6237 C   0  0  0  0  0  0  0  0  0  0  0  0
  -79.9006  -10.6866   19.1413 C   0  0  0  0  0  0  0  0  0  0  0  0
  -80.6447  -11.4246   19.9734 C   0  0  0  0  0  0  0  0  0  0  0  0
  -79.6222   -9.0985   20.9195 N   0  0  0  0  0  0  0  0  0  0  0  0
  -80.4236   -9.8190   21.7657 C   0  0  0  0  0  0  0  0  0  0  0  0
  -80.7198   -9.3621   22.8651 O   0  0  0  0  0  0  0  0  0  0  0  0
  -80.9032  -11.0245   21.2756 N   0  0  0  0  0  0  0  0  0  0  0  0
  -81.6385  -11.8809   22.2208 C   0  0  2  0  0  0  0  0  0  0  0  0
  -81.0537  -13.1956   22.2854 O   0  0  0  0  0  0  0  0  0  0  0  0
  -83.1302  -12.0468   21.8730 C   0  0  2  0  0  0  0  0  0  0  0  0
  -83.9957  -11.0701   22.4674 O   0  0  0  0  0  0  0  0  0  0  0  0
  -83.4287  -13.4183   22.4569 C   0  0  2  0  0  0  0  0  0  0  0  0
  -83.7214  -13.2736   23.8606 O   0  0  0  0  0  0  0  0  0  0  0  0
  -82.1158  -14.1790   22.2861 C   0  0  1  0  0  0  0  0  0  0  0  0
  -82.0310  -14.9731   20.9811 C   0  0  0  0  0  0  0  0  0  0  0  0
  -82.3851  -14.1437   19.8881 O   0  0  0  0  0  0  0  0  0  0  0  0
  -81.8893  -14.5802   18.4295 P   0  0  2  0  0  5  0  0  0  0  0  0
  -81.2849  -13.5145   17.5863 O   0  0  0  0  0  0  0  0  0  0  0  0
  -83.2338  -15.1762   17.7888 O   0  0  0  0  0  0  0  0  0  0  0  0
  -81.0364  -15.8901   18.6840 O   0  0  0  0  0  0  0  0  0  0  0  0
  -79.8729  -16.3768   17.7236 P   0  0  2  0  0  5  0  0  0  0  0  0
  -79.8378  -15.7805   16.3567 O   0  0  0  0  0  0  0  0  0  0  0  0
  -80.0206  -17.9699   17.7104 O   0  0  0  0  0  0  0  0  0  0  0  0
  -78.5294  -16.1785   18.5722 O   0  0  0  0  0  0  0  0  0  0  0  0
  -77.4229  -16.9883   18.2162 C   0  0  2  0  0  0  0  0  0  0  0  0
  -76.6246  -17.1680   19.3866 O   0  0  0  0  0  0  0  0  0  0  0  0
  -75.5824  -18.1526   19.2214 C   0  0  2  0  0  0  0  0  0  0  0  0
  -74.6451  -17.9636   20.4114 C   0  0  0  0  0  0  0  0  0  0  0  0
  -74.9313  -18.0787   17.8113 C   0  0  1  0  0  0  0  0  0  0  0  0
  -75.0922  -16.6907   17.1698 C   0  0  2  0  0  0  0  0  0  0  0  0
  -74.3990  -15.6751   17.9145 O   0  0  0  0  0  0  0  0  0  0  0  0
  -76.5860  -16.3024   17.1029 C   0  0  2  0  0  0  0  0  0  0  0  0
  -76.6731  -14.8632   17.1817 O   0  0  0  0  0  0  0  0  0  0  0  0
  -73.5738  -18.6781   17.7087 N   0  0  0  0  0  0  0  0  0  0  0  0
  -72.7113  -18.0766   16.9579 C   0  0  0  0  0  0  0  0  0  0  0  0
  -71.3294  -18.5814   16.7789 C   0  0  0  0  0  0  0  0  0  0  0  0
  -70.8372  -19.5656   17.6469 C   0  0  0  0  0  0  0  0  0  0  0  0
  -71.5765  -20.0686   18.6879 O   0  0  0  0  0  0  0  0  0  0  0  0
  -69.5423  -20.0350   17.4608 C   0  0  0  0  0  0  0  0  0  0  0  0
  -68.9633  -21.0890   18.3487 C   0  0  0  0  0  0  0  0  0  0  0  0
  -70.5138  -18.0775   15.7504 C   0  0  0  0  0  0  0  0  0  0  0  0
  -69.2337  -18.6125   15.6648 C   0  0  0  0  0  0  0  0  0  0  0  0
  -68.7372  -19.5636   16.4810 N   0  0  0  0  0  0  0  0  0  0  0  0
  -70.8862  -16.9375   14.8364 C   0  0  0  0  0  0  0  0  0  0  0  0
  -70.2712  -15.7200   15.2396 O   0  0  0  0  0  0  0  0  0  0  0  0
  -71.2230  -14.4387   15.3385 P   0  0  0  0  0  5  0  0  0  0  0  0
  -72.0024  -14.6383   16.7152 O   0  0  0  0  0  0  0  0  0  0  0  0
  -70.5964  -13.1013   15.1595 O   0  0  0  0  0  0  0  0  0  0  0  0
  -72.3623  -14.7679   14.2696 O   0  0  0  0  0  0  0  0  0  0  0  0
  1  2  2  0
  2  3  4  0
  3  4  4  0
  2  5  4  0
  5  6  4  0
  6  7  2  0
  4  8  4  0
  6  8  4  0
  9  8  1  6
  9 10  1  0
  9 11  1  0
 11 12  1  1
 11 13  1  0
 13 14  1  1
 10 15  1  0
 13 15  1  0
 15 16  1  6
 16 17  1  0
 18 17  1  0
 18 19  2  0
 18 20  1  6
 18 21  1  0
 22 21  1  0
 22 23  2  0
 22 24  1  6
 22 25  1  0
 26 25  1  1
 26 27  1  0
 27 28  1  0
 28 29  1  1
 28 30  1  0
 30 31  1  0
 31 32  1  1
 31 33  1  0
 26 33  1  0
 33 34  1  1
 30 35  1  1
 35 36  2  0
 36 37  1  0
 37 38  4  0
 38 39  1  0
 38 40  4  0
 40 41  1  0
 37 42  4  0
 42 43  4  0
 40 44  4  0
 43 44  4  0
 42 45  1  0
 45 46  1  0
 46 47  1  0
 47 48  1  0
 47 49  2  0
 47 50  1  0
M  END
