8DHG_T78_A_403
     RDKit          3D

 35 37  0  0  0  0  0  0  0  0999 V2000
   36.5001  -15.6934    8.1117 C   0  0  0  0  0  0  0  0  0  0  0  0
   37.6682  -16.6545    8.3016 C   0  0  0  0  0  0  0  0  0  0  0  0
   37.0971  -17.9197   10.3833 C   0  0  0  0  0  0  0  0  0  0  0  0
   38.7371  -16.4533   10.5829 C   0  0  0  0  0  0  0  0  0  0  0  0
   37.1470  -18.6580   12.7435 C   0  0  0  0  0  0  0  0  0  0  0  0
   38.8515  -20.6002   15.2254 O   0  0  0  0  0  0  0  0  0  0  0  0
   40.1984  -20.5727   14.7559 C   0  0  1  0  0  0  0  0  0  0  0  0
   41.0220  -19.5857   15.5838 C   0  0  0  0  0  0  0  0  0  0  0  0
   40.7033  -22.0066   14.8735 C   0  0  1  0  0  0  0  0  0  0  0  0
   35.4805  -19.5995   14.1898 C   0  0  0  0  0  0  0  0  0  0  0  0
   35.8035  -18.8100   13.1118 C   0  0  0  0  0  0  0  0  0  0  0  0
   35.9734  -23.7348   17.8442 C   0  0  0  0  0  0  0  0  0  0  0  0
   35.2563  -24.1836   16.5893 C   0  0  0  0  0  0  0  0  0  0  0  0
   35.8193  -24.4776   19.0081 C   0  0  0  0  0  0  0  0  0  0  0  0
   36.4756  -24.1096   20.1764 C   0  0  0  0  0  0  0  0  0  0  0  0
   37.4424  -22.3011   19.1188 C   0  0  0  0  0  0  0  0  0  0  0  0
   37.8195  -17.0002    9.7107 N   0  0  0  0  0  0  0  0  0  0  0  0
   36.1877  -18.6176    9.9281 O   0  0  0  0  0  0  0  0  0  0  0  0
   37.5563  -17.9066   11.6571 N   0  0  0  0  0  0  0  0  0  0  0  0
   38.5876  -16.9778   11.7351 N   0  0  0  0  0  0  0  0  0  0  0  0
   39.7948  -15.4153   10.3258 C   0  0  0  0  0  0  0  0  0  0  0  0
   39.2940  -14.2347    9.7186 O   0  0  0  0  0  0  0  0  0  0  0  0
   38.0888  -19.2529   13.4606 N   0  0  0  0  0  0  0  0  0  0  0  0
   37.8355  -20.0111   14.5292 C   0  0  0  0  0  0  0  0  0  0  0  0
   39.7272  -22.8670   14.3862 F   0  0  0  0  0  0  0  0  0  0  0  0
   41.8378  -22.1265   14.1066 F   0  0  0  0  0  0  0  0  0  0  0  0
   40.9666  -22.3164   16.1942 F   0  0  0  0  0  0  0  0  0  0  0  0
   36.4895  -20.2171   14.9564 C   0  0  0  0  0  0  0  0  0  0  0  0
   34.7965  -18.2305   12.4475 F   0  0  0  0  0  0  0  0  0  0  0  0
   36.0989  -21.0841   16.0973 C   0  0  0  0  0  0  0  0  0  0  0  0
   34.9143  -21.2170   16.3614 O   0  0  0  0  0  0  0  0  0  0  0  0
   37.0467  -21.8071   16.7704 N   0  0  0  0  0  0  0  0  0  0  0  0
   36.8048  -22.5946   17.9032 C   0  0  0  0  0  0  0  0  0  0  0  0
   37.2677  -23.0462   20.2037 N   0  0  0  0  0  0  0  0  0  0  0  0
   38.4741  -20.9329   19.2180 Cl  0  0  0  0  0  0  0  0  0  0  0  0
  1  2  1  0
  6  7  1  0
  7  8  1  1
  7  9  1  0
 10 11  2  0
  5 11  1  0
 12 13  1  0
 12 14  2  0
 14 15  1  0
  3 17  1  0
  2 17  1  0
  4 17  1  0
  3 18  2  0
  3 19  1  0
  5 19  1  0
 19 20  1  0
  4 20  2  0
  4 21  1  0
 21 22  1  0
  5 23  2  0
 23 24  1  0
  6 24  1  0
  9 25  1  6
  9 26  1  0
  9 27  1  0
 10 28  1  0
 24 28  2  0
 11 29  1  0
 28 30  1  0
 30 31  2  0
 30 32  1  0
 12 33  1  0
 32 33  1  0
 16 33  2  0
 15 34  2  0
 16 34  1  0
 16 35  1  0
M  END
