
     RDKit          3D

 21 23  0  0  0  0  0  0  0  0999 V2000
    3.9573  -14.6228   -7.9209 C   0  0  0  0  0  0  0  0  0  0  0  0
    3.8118  -17.4302  -11.0223 C   0  0  0  0  0  0  0  0  0  0  0  0
    4.5882  -16.3377  -11.0566 C   0  0  0  0  0  0  0  0  0  0  0  0
    5.4489  -16.0447  -12.2155 C   0  0  0  0  0  0  0  0  0  0  0  0
    5.6222  -14.7156  -12.6379 C   0  0  0  0  0  0  0  0  0  0  0  0
    6.4437  -14.4412  -13.7268 C   0  0  0  0  0  0  0  0  0  0  0  0
    7.0989  -15.4727  -14.3931 C   0  0  0  0  0  0  0  0  0  0  0  0
    6.9457  -16.7890  -13.9881 C   0  0  0  0  0  0  0  0  0  0  0  0
    6.1206  -17.0755  -12.8975 C   0  0  0  0  0  0  0  0  0  0  0  0
    3.8769  -15.5748   -8.9334 C   0  0  0  0  0  0  0  0  0  0  0  0
    3.0257  -16.6666   -8.7727 C   0  0  0  0  0  0  0  0  0  0  0  0
    2.2525  -16.8074   -7.6122 C   0  0  0  0  0  0  0  0  0  0  0  0
    2.3349  -15.8443   -6.6040 C   0  0  0  0  0  0  0  0  0  0  0  0
    3.1880  -14.7600   -6.7677 C   0  0  0  0  0  0  0  0  0  0  0  0
    2.9575  -17.6679   -9.8475 C   0  0  0  0  0  0  0  0  0  0  0  0
    4.6467  -15.3841  -10.0534 O   0  0  0  0  0  0  0  0  0  0  0  0
    6.6394  -13.1669  -14.1834 O   0  0  0  0  0  0  0  0  0  0  0  0
    7.9047  -15.1940  -15.4588 O   0  0  0  0  0  0  0  0  0  0  0  0
    2.2338  -18.6519   -9.7828 O   0  0  0  0  0  0  0  0  0  0  0  0
    3.2678  -13.8235   -5.7780 O   0  0  0  0  0  0  0  0  0  0  0  0
    4.7842  -13.5341   -8.0146 O   0  0  0  0  0  0  0  0  0  0  0  0
  2  3  4  0
  3  4  1  0
  4  5  4  0
  5  6  4  0
  6  7  4  0
  7  8  4  0
  8  9  4  0
  4  9  4  0
  1 10  4  0
 10 11  4  0
 11 12  4  0
 12 13  4  0
  1 14  4  0
 13 14  4  0
  2 15  4  0
 11 15  4  0
  3 16  4  0
 10 16  4  0
  6 17  1  0
  7 18  1  0
 15 19  2  0
 14 20  1  0
  1 21  1  0
M  END
