7KB1_WBJ_A_501
     RDKit          3D

 37 37  0  0  0  0  0  0  0  0999 V2000
  -12.6542   -1.3179    1.1201 C   0  0  0  0  0  0  0  0  0  0  0  0
  -11.2165   -5.0153   -3.1208 C   0  0  0  0  0  0  0  0  0  0  0  0
  -13.0939   -3.6556   -6.7108 C   0  0  0  0  0  0  0  0  0  0  0  0
  -16.2723   -3.7271   -4.7073 C   0  0  0  0  0  0  0  0  0  0  0  0
  -15.3770   -3.2454   -5.5682 C   0  0  0  0  0  0  0  0  0  0  0  0
  -13.9288   -3.5743   -5.4950 C   0  0  0  0  0  0  0  0  0  0  0  0
  -14.0108   -3.8509   -3.0488 C   0  0  0  0  0  0  0  0  0  0  0  0
  -12.9864   -3.5268   -1.9852 C   0  0  0  0  0  0  0  0  0  0  0  0
  -13.3180   -2.6066   -0.9674 C   0  0  0  0  0  0  0  0  0  0  0  0
  -12.3549   -2.2777    0.0084 C   0  0  0  0  0  0  0  0  0  0  0  0
  -10.7606   -3.6992   -1.0339 C   0  0  0  0  0  0  0  0  0  0  0  0
  -11.6734   -4.0619   -2.0342 C   0  0  0  0  0  0  0  0  0  0  0  0
  -13.3593   -3.8453   -4.3560 N   0  0  0  0  0  0  0  0  0  0  0  0
  -11.1173   -2.8323   -0.0552 N   0  0  0  0  0  0  0  0  0  0  0  0
  -14.5937   -2.0331   -0.9474 O   0  0  0  0  0  0  0  0  0  0  0  0
  -12.2090   -5.2060   -4.1065 O   0  0  0  0  0  0  0  0  0  0  0  0
  -13.9410   -6.5165   -2.3522 O   0  0  0  0  0  0  0  0  0  0  0  0
  -14.1212   -6.9982   -5.0703 O   0  0  0  0  0  0  0  0  0  0  0  0
  -12.0704   -7.7830   -3.6596 O   0  0  0  0  0  0  0  0  0  0  0  0
  -13.3571   -2.8097   -7.7850 O   0  0  0  0  0  0  0  0  0  0  0  0
  -12.1219   -4.4555   -6.7756 O   0  0  0  0  0  0  0  0  0  0  0  0
  -13.0639   -6.6515   -3.7942 P   0  0  1  0  0  5  0  0  0  0  0  0
  -11.7736   -1.2077    1.7882 H   0  0  0  0  0  0  0  0  0  0  0  0
  -13.5057   -1.6931    1.7256 H   0  0  0  0  0  0  0  0  0  0  0  0
  -12.9018   -0.3196    0.7015 H   0  0  0  0  0  0  0  0  0  0  0  0
  -11.0097   -5.9973   -2.6470 H   0  0  0  0  0  0  0  0  0  0  0  0
  -10.2415   -4.7114   -3.5651 H   0  0  0  0  0  0  0  0  0  0  0  0
  -17.3183   -3.4737   -4.8202 H   0  0  0  0  0  0  0  0  0  0  0  0
  -15.9894   -4.3993   -3.9083 H   0  0  0  0  0  0  0  0  0  0  0  0
  -15.7403   -2.6350   -6.3849 H   0  0  0  0  0  0  0  0  0  0  0  0
  -14.8373   -3.1078   -3.0377 H   0  0  0  0  0  0  0  0  0  0  0  0
  -14.4738   -4.8408   -2.8588 H   0  0  0  0  0  0  0  0  0  0  0  0
   -9.7544   -4.0982   -1.0356 H   0  0  0  0  0  0  0  0  0  0  0  0
  -14.8900   -1.3641   -0.2486 H   0  0  0  0  0  0  0  0  0  0  0  0
  -13.2656   -6.2849   -1.6657 H   0  0  0  0  0  0  0  0  0  0  0  0
  -14.6435   -7.7804   -4.7603 H   0  0  0  0  0  0  0  0  0  0  0  0
  -12.7861   -2.8375   -8.6212 H   0  0  0  0  0  0  0  0  0  0  0  0
  4  5  2  3
  5  6  1  0
  3  6  1  0
  7  8  1  0
  8  9  4  0
  1 10  1  0
  9 10  4  0
 11 12  4  0
  2 12  1  0
  8 12  4  0
  7 13  1  0
  6 13  2  3
 11 14  4  0
 10 14  4  0
  9 15  1  0
  2 16  1  0
  3 20  1  0
  3 21  2  0
 19 22  2  0
 22 16  1  1
 17 22  1  0
 18 22  1  0
  1 23  1  0
  1 24  1  0
  1 25  1  0
  2 26  1  0
  2 27  1  0
  4 28  1  0
  4 29  1  0
  5 30  1  0
  7 31  1  0
  7 32  1  0
 11 33  1  0
 15 34  1  0
 17 35  1  0
 18 36  1  0
 20 37  1  0
M  END
