7T0U_E3I_A_204
     RDKit          3D

 77 82  0  0  0  0  0  0  0  0999 V2000
   -5.2604   -1.8737   -2.9426 C   0  0  0  0  0  0  0  0  0  0  0  0
   -3.0618   -1.5923   -1.8678 C   0  0  0  0  0  0  0  0  0  0  0  0
   -1.7352   -1.1713   -1.9183 C   0  0  0  0  0  0  0  0  0  0  0  0
   -0.6804   -1.2034   -1.0122 C   0  0  0  0  0  0  0  0  0  0  0  0
   -0.6284   -1.8317    0.3233 C   0  0  0  0  0  0  0  0  0  0  0  0
   -1.1999   -1.1951    1.4314 C   0  0  0  0  0  0  0  0  0  0  0  0
   -1.1827   -1.8040    2.6888 C   0  0  0  0  0  0  0  0  0  0  0  0
   -0.5963   -3.0754    2.8501 C   0  0  0  0  0  0  0  0  0  0  0  0
   -0.0339   -3.7341    1.7341 C   0  0  0  0  0  0  0  0  0  0  0  0
    0.5700   -5.0828    1.8678 C   0  0  0  0  0  0  0  0  0  0  0  0
   -0.0651   -3.1058    0.4766 C   0  0  0  0  0  0  0  0  0  0  0  0
    0.3816   -0.5619   -1.6495 C   0  0  0  0  0  0  0  0  0  0  0  0
    0.8571    0.4879   -3.8850 C   0  0  0  0  0  0  0  0  0  0  0  0
    0.6112    1.9688   -3.9136 C   0  0  0  0  0  0  0  0  0  0  0  0
   -1.5505    1.8783   -2.5879 C   0  0  0  0  0  0  0  0  0  0  0  0
   -1.7143    0.4982   -2.7998 C   0  0  0  0  0  0  0  0  0  0  0  0
   -2.8684   -0.1611   -2.3287 C   0  0  0  0  0  0  0  0  0  0  0  0
   -2.6690   -2.1755   -3.8341 C   0  0  1  0  0  0  0  0  0  0  0  0
   -1.1376   -2.1778   -3.9569 C   0  0  0  0  0  0  0  0  0  0  0  0
   -3.2128   -3.6044   -4.0870 C   0  0  0  0  0  0  0  0  0  0  0  0
   -5.5937   -3.0544   -3.8252 C   0  0  2  0  0  0  0  0  0  0  0  0
   -5.2330   -2.1341   -4.9740 C   0  0  0  0  0  0  0  0  0  0  0  0
   -5.7186   -1.7496   -3.0649 C   0  0  0  0  0  0  0  0  0  0  0  0
   -4.2033   -3.7699   -1.9228 C   0  0  0  0  0  0  0  0  0  0  0  0
   -3.8176   -2.3465   -1.5051 C   0  0  0  0  0  0  0  0  0  0  0  0
   -3.6672    1.8971   -1.4206 C   0  0  0  0  0  0  0  0  0  0  0  0
   -2.5402    2.5798   -1.8783 C   0  0  0  0  0  0  0  0  0  0  0  0
   -1.2732   -0.5411   -3.0288 C   0  0  0  0  0  0  0  0  0  0  0  0
   -3.3477   -0.7718   -4.1036 C   0  0  0  0  0  0  0  0  0  0  0  0
   -4.1726   -0.5282   -5.3467 C   0  0  1  0  0  0  0  0  0  0  0  0
   -5.3663    0.0794   -5.0045 F   0  0  0  0  0  0  0  0  0  0  0  0
   -3.4804    0.2706   -6.2384 F   0  0  0  0  0  0  0  0  0  0  0  0
   -4.4594   -1.7271   -5.9765 F   0  0  0  0  0  0  0  0  0  0  0  0
   -3.8565   -1.4240   -2.9849 N   0  0  0  0  0  4  0  0  0  0  0  0
    1.3189   -5.4434    3.0306 N   0  0  0  0  0  0  0  0  0  0  0  0
    0.0070   -0.1552   -2.8845 N   0  0  0  0  0  4  0  0  0  0  0  0
   -0.3588    2.5546   -3.0311 N   0  0  0  0  0  0  0  0  0  0  0  0
   -3.0779   -1.5866   -2.5341 N   0  0  0  0  0  0  0  0  0  0  0  0
   -4.4618   -3.8927   -3.3658 N   0  0  0  0  0  0  0  0  0  0  0  0
   -3.8017    0.5668   -1.6526 N   0  0  0  0  0  0  0  0  0  0  0  0
   -2.0513   -0.3386   -4.1136 N   0  0  0  0  0  0  0  0  0  0  0  0
   -3.5254   -2.0960   -0.8085 O   0  0  0  0  0  0  0  0  0  0  0  0
   -0.5535   -3.6889    4.1052 O   0  0  0  0  0  0  0  0  0  0  0  0
    0.4254   -5.9316    0.9481 O   0  0  0  0  0  0  0  0  0  0  0  0
   -5.3993   -0.9753   -4.1945 O   0  0  0  0  0  0  0  0  0  0  0  0
    1.2467    2.6882   -4.7316 O   0  0  0  0  0  0  0  0  0  0  0  0
   -1.9122   -0.9452    4.0402 Cl  0  0  0  0  0  0  0  0  0  0  0  0
   -2.4139    4.3086   -1.5791 Cl  0  0  0  0  0  0  0  0  0  0  0  0
   -5.9212   -1.0147   -2.7018 H   0  0  0  0  0  0  0  0  0  0  0  0
   -5.4188   -2.6652   -2.1802 H   0  0  0  0  0  0  0  0  0  0  0  0
   -5.5685   -2.3239   -3.9073 H   0  0  0  0  0  0  0  0  0  0  0  0
   -1.6828   -0.2326    1.3145 H   0  0  0  0  0  0  0  0  0  0  0  0
    0.3377   -3.6105   -0.3929 H   0  0  0  0  0  0  0  0  0  0  0  0
    1.3763   -0.4303   -1.2423 H   0  0  0  0  0  0  0  0  0  0  0  0
    0.6544    0.0427   -4.8832 H   0  0  0  0  0  0  0  0  0  0  0  0
    1.9263    0.3030   -3.6481 H   0  0  0  0  0  0  0  0  0  0  0  0
   -0.9342   -0.0499   -3.3057 H   0  0  0  0  0  0  0  0  0  0  0  0
   -3.0775   -1.5394   -4.6510 H   0  0  0  0  0  0  0  0  0  0  0  0
   -0.8318   -2.6264   -4.9271 H   0  0  0  0  0  0  0  0  0  0  0  0
   -0.7323   -1.1462   -3.9198 H   0  0  0  0  0  0  0  0  0  0  0  0
   -0.6870   -2.7654   -3.1282 H   0  0  0  0  0  0  0  0  0  0  0  0
   -3.3580   -3.7525   -5.1795 H   0  0  0  0  0  0  0  0  0  0  0  0
   -2.4552   -4.3679   -3.7945 H   0  0  0  0  0  0  0  0  0  0  0  0
   -6.5630   -3.5836   -3.9604 H   0  0  0  0  0  0  0  0  0  0  0  0
   -5.9757   -2.1706   -5.8010 H   0  0  0  0  0  0  0  0  0  0  0  0
   -4.1804   -2.2174   -5.3217 H   0  0  0  0  0  0  0  0  0  0  0  0
   -4.9567   -1.6057   -2.2672 H   0  0  0  0  0  0  0  0  0  0  0  0
   -6.7586   -1.5508   -2.7245 H   0  0  0  0  0  0  0  0  0  0  0  0
   -5.0900   -4.0978   -1.3403 H   0  0  0  0  0  0  0  0  0  0  0  0
   -3.3853   -4.4672   -1.6322 H   0  0  0  0  0  0  0  0  0  0  0  0
   -3.2029   -2.4127   -0.5813 H   0  0  0  0  0  0  0  0  0  0  0  0
   -4.7550   -1.7999   -1.2585 H   0  0  0  0  0  0  0  0  0  0  0  0
   -4.4425    2.4241   -0.8796 H   0  0  0  0  0  0  0  0  0  0  0  0
    1.3575   -4.8213    3.8675 H   0  0  0  0  0  0  0  0  0  0  0  0
    1.7862   -6.3760    3.0826 H   0  0  0  0  0  0  0  0  0  0  0  0
   -0.2023    3.5392   -2.7210 H   0  0  0  0  0  0  0  0  0  0  0  0
   -0.9358   -3.2643    4.9404 H   0  0  0  0  0  0  0  0  0  0  0  0
  2  3  4  0
  3  4  4  0
  4  5  1  0
  5  6  4  0
  6  7  4  0
  7  8  4  0
  8  9  4  0
  9 10  1  0
  9 11  4  0
  5 11  4  0
  4 12  4  0
 13 14  1  0
 15 16  4  0
 16 17  4  0
 18 19  1  0
 18 20  1  0
 21 22  1  0
 21 23  1  0
 24 25  1  0
 15 27  4  0
 26 27  4  0
  3 28  4  0
 29 30  1  0
 30 31  1  1
 30 32  1  0
 30 33  1  0
  2 34  4  0
  1 34  1  0
 29 34  4  0
 10 35  1  0
 12 36  4  0
 13 36  1  0
 28 36  4  0
 14 37  1  0
 15 37  1  0
 17 38  1  0
 18 38  1  0
 25 38  1  0
 20 39  1  0
 24 39  1  0
 21 39  1  0
 26 40  4  0
 17 40  4  0
 28 41  4  0
 29 41  4  0
  2 42  2  0
  8 43  1  0
 10 44  2  0
 22 45  1  0
 23 45  1  0
 14 46  2  0
  7 47  1  0
 27 48  1  0
  1 49  1  0
  1 50  1  0
  1 51  1  0
  6 52  1  0
 11 53  1  0
 12 54  1  0
 13 55  1  0
 13 56  1  0
 16 57  1  0
 18 58  1  6
 19 59  1  0
 19 60  1  0
 19 61  1  0
 20 62  1  0
 20 63  1  0
 21 64  1  6
 22 65  1  0
 22 66  1  0
 23 67  1  0
 23 68  1  0
 24 69  1  0
 24 70  1  0
 25 71  1  0
 25 72  1  0
 26 73  1  0
 35 74  1  0
 35 75  1  0
 37 76  1  0
 43 77  1  0
M  CHG  2  34   1  36   1
M  END
