7CL8_TES_A_505
     RDKit          3D

 49 52  0  0  0  0  0  0  0  0999 V2000
   20.6543   -5.5443  -24.1806 C   0  0  0  0  0  0  0  0  0  0  0  0
   21.8243   -6.1450  -24.9662 C   0  0  0  0  0  0  0  0  0  0  0  0
   21.5218   -7.4713  -25.5368 C   0  0  0  0  0  0  0  0  0  0  0  0
   22.1581   -7.8775  -26.4978 O   0  0  0  0  0  0  0  0  0  0  0  0
   20.4245   -8.1924  -24.9405 C   0  0  0  0  0  0  0  0  0  0  0  0
   19.7801   -7.8458  -23.8235 C   0  0  0  0  0  0  0  0  0  0  0  0
   18.8417   -8.8170  -23.1541 C   0  0  0  0  0  0  0  0  0  0  0  0
   17.5149   -8.1641  -22.7802 C   0  0  0  0  0  0  0  0  0  0  0  0
   17.7810   -6.9398  -21.9177 C   0  0  1  0  0  0  0  0  0  0  0  0
   18.6419   -5.9036  -22.6607 C   0  0  2  0  0  0  0  0  0  0  0  0
   20.0052   -6.4912  -23.1560 C   0  0  2  0  0  0  0  0  0  0  0  0
   18.7968   -4.6176  -21.8371 C   0  0  0  0  0  0  0  0  0  0  0  0
   17.4636   -4.0562  -21.3504 C   0  0  0  0  0  0  0  0  0  0  0  0
   16.6487   -5.0620  -20.5808 C   0  0  2  0  0  0  0  0  0  0  0  0
   16.4733   -6.2711  -21.5189 C   0  0  2  0  0  0  0  0  0  0  0  0
   15.3674   -7.0826  -20.8381 C   0  0  0  0  0  0  0  0  0  0  0  0
   14.4371   -6.0230  -20.2082 C   0  0  0  0  0  0  0  0  0  0  0  0
   15.1525   -4.6663  -20.3834 C   0  0  1  0  0  0  0  0  0  0  0  0
   14.8575   -3.7987  -19.2681 O   0  0  0  0  0  0  0  0  0  0  0  0
   17.2657   -5.3300  -19.2117 C   0  0  0  0  0  0  0  0  0  0  0  0
   20.9739   -6.7420  -21.9989 C   0  0  0  0  0  0  0  0  0  0  0  0
   21.0135   -4.6836  -23.6563 H   0  0  0  0  0  0  0  0  0  0  0  0
   19.8959   -5.3170  -24.9004 H   0  0  0  0  0  0  0  0  0  0  0  0
   22.0740   -5.4796  -25.7660 H   0  0  0  0  0  0  0  0  0  0  0  0
   22.6357   -6.2718  -24.2803 H   0  0  0  0  0  0  0  0  0  0  0  0
   20.1099   -9.0510  -25.4188 H   0  0  0  0  0  0  0  0  0  0  0  0
   18.6503   -9.6295  -23.8234 H   0  0  0  0  0  0  0  0  0  0  0  0
   19.3072   -9.1588  -22.2533 H   0  0  0  0  0  0  0  0  0  0  0  0
   16.9988   -7.8690  -23.6698 H   0  0  0  0  0  0  0  0  0  0  0  0
   16.9136   -8.8618  -22.2356 H   0  0  0  0  0  0  0  0  0  0  0  0
   18.3045   -7.2795  -21.0485 H   0  0  0  0  0  0  0  0  0  0  0  0
   18.1178   -5.6352  -23.5541 H   0  0  0  0  0  0  0  0  0  0  0  0
   19.4086   -4.8300  -20.9853 H   0  0  0  0  0  0  0  0  0  0  0  0
   19.2404   -3.8812  -22.4743 H   0  0  0  0  0  0  0  0  0  0  0  0
   17.6582   -3.2172  -20.7155 H   0  0  0  0  0  0  0  0  0  0  0  0
   16.8976   -3.7791  -22.2151 H   0  0  0  0  0  0  0  0  0  0  0  0
   16.1575   -6.0392  -22.5147 H   0  0  0  0  0  0  0  0  0  0  0  0
   14.8362   -7.6729  -21.5552 H   0  0  0  0  0  0  0  0  0  0  0  0
   15.7547   -7.7657  -20.1112 H   0  0  0  0  0  0  0  0  0  0  0  0
   13.4925   -6.0123  -20.7107 H   0  0  0  0  0  0  0  0  0  0  0  0
   14.2465   -6.2339  -19.1766 H   0  0  0  0  0  0  0  0  0  0  0  0
   14.8319   -4.0810  -21.2199 H   0  0  0  0  0  0  0  0  0  0  0  0
   15.1129   -4.2369  -18.4412 H   0  0  0  0  0  0  0  0  0  0  0  0
   18.2933   -5.6030  -19.3308 H   0  0  0  0  0  0  0  0  0  0  0  0
   17.1985   -4.4468  -18.6112 H   0  0  0  0  0  0  0  0  0  0  0  0
   16.7379   -6.1280  -18.7326 H   0  0  0  0  0  0  0  0  0  0  0  0
   21.8898   -7.1421  -22.3809 H   0  0  0  0  0  0  0  0  0  0  0  0
   21.1712   -5.8201  -21.4928 H   0  0  0  0  0  0  0  0  0  0  0  0
   20.5384   -7.4390  -21.3138 H   0  0  0  0  0  0  0  0  0  0  0  0
  1  2  1  0
  2  3  1  0
  3  4  2  0
  3  5  1  0
  5  6  2  0
  6  7  1  0
  7  8  1  0
  9  8  1  0
  9 10  1  0
  1 11  1  0
  6 11  1  0
 10 11  1  0
 10 12  1  0
 12 13  1  0
 13 14  1  0
  9 15  1  0
 14 15  1  0
 15 16  1  0
 16 17  1  0
 14 18  1  0
 17 18  1  0
 18 19  1  0
 14 20  1  6
 11 21  1  6
  1 22  1  0
  1 23  1  0
  2 24  1  0
  2 25  1  0
  5 26  1  0
  7 27  1  0
  7 28  1  0
  8 29  1  0
  8 30  1  0
  9 31  1  6
 10 32  1  1
 12 33  1  0
 12 34  1  0
 13 35  1  0
 13 36  1  0
 15 37  1  1
 16 38  1  0
 16 39  1  0
 17 40  1  0
 17 41  1  0
 18 42  1  1
 19 43  1  0
 20 44  1  0
 20 45  1  0
 20 46  1  0
 21 47  1  0
 21 48  1  0
 21 49  1  0
M  END
