7L5F_XNG_A_304
     RDKit          3D

 18 17  0  0  0  0  0  0  0  0999 V2000
   15.2255   33.2602   24.6024 C   0  0  0  0  0  0  0  0  0  0  0  0
   12.8821   33.2460   28.4984 C   0  0  0  0  0  0  0  0  0  0  0  0
   14.1692   33.3422   29.3048 C   0  0  0  0  0  0  0  0  0  0  0  0
   14.0069   33.9571   30.6837 C   0  0  0  0  0  0  0  0  0  0  0  0
   14.1974   32.8571   31.7152 C   0  0  0  0  0  0  0  0  0  0  0  0
   13.1044   32.9507   32.7600 C   0  0  0  0  0  0  0  0  0  0  0  0
   12.8656   31.5641   33.3503 C   0  0  0  0  0  0  0  0  0  0  0  0
   13.0098   31.5858   34.8571 C   0  0  0  0  0  0  0  0  0  0  0  0
   12.2755   30.3890   35.4188 C   0  0  0  0  0  0  0  0  0  0  0  0
   14.9580   32.9079   23.1465 C   0  0  0  0  0  0  0  0  0  0  0  0
   15.2957   34.1019   22.2603 C   0  0  0  0  0  0  0  0  0  0  0  0
   15.0233   35.3283   23.1056 C   0  0  0  0  0  0  0  0  0  0  0  0
   14.1479   34.1233   26.5507 C   0  0  0  0  0  0  0  0  0  0  0  0
   12.9040   34.2947   27.3884 C   0  0  0  0  0  0  0  0  0  0  0  0
   14.0096   33.5473   25.3553 N   0  0  0  0  0  0  0  0  0  0  0  0
   15.2449   34.5001   26.9727 O   0  0  0  0  0  0  0  0  0  0  0  0
   14.0092   35.2715   23.8060 O   0  0  0  0  0  0  0  0  0  0  0  0
   15.7976   36.3139   23.0939 O   0  0  0  0  0  0  0  0  0  0  0  0
  2  3  1  0
  3  4  1  0
  4  5  1  0
  5  6  1  0
  6  7  1  0
  7  8  1  0
  8  9  1  0
  1 10  1  0
 10 11  1  0
 11 12  1  0
  2 14  1  0
 13 14  1  0
 13 15  1  0
  1 15  1  0
 13 16  2  0
 12 17  2  0
 12 18  1  0
M  END
