7X9K_8OG_A_202
     RDKit          3D

 38 40  0  0  0  0  0  0  0  0999 V2000
   -6.5042   -1.1761   23.3201 O   0  0  0  0  0  0  0  0  0  0  0  0
   -7.3115    0.0695   23.0905 P   0  0  2  0  0  5  0  0  0  0  0  0
   -8.3179   -0.0252   21.9732 O   0  0  0  0  0  0  0  0  0  0  0  0
   -6.4480    1.3157   23.0547 O   0  0  0  0  0  0  0  0  0  0  0  0
   -8.2351    0.1939   24.4052 O   0  0  0  0  0  0  0  0  0  0  0  0
   -8.4357   -0.9410   25.2410 C   0  0  0  0  0  0  0  0  0  0  0  0
   -8.7084   -0.5589   26.6956 C   0  0  2  0  0  0  0  0  0  0  0  0
   -8.2168    0.7678   26.8495 O   0  0  0  0  0  0  0  0  0  0  0  0
   -7.9333   -1.4181   27.6775 C   0  0  2  0  0  0  0  0  0  0  0  0
   -8.6572   -1.5123   28.9077 O   0  0  0  0  0  0  0  0  0  0  0  0
   -6.6792   -0.6213   27.9640 C   0  0  0  0  0  0  0  0  0  0  0  0
   -7.1583    0.8147   27.7918 C   0  0  1  0  0  0  0  0  0  0  0  0
   -6.0558    1.6485   27.2698 N   0  0  0  0  0  4  0  0  0  0  0  0
   -6.1515    2.8282   26.6706 C   0  0  0  0  0  0  0  0  0  0  0  0
   -4.9786    3.3638   26.2940 N   0  0  0  0  0  4  0  0  0  0  0  0
   -4.0702    2.4316   26.6866 C   0  0  0  0  0  0  0  0  0  0  0  0
   -2.6890    2.3653   26.5967 C   0  0  0  0  0  0  0  0  0  0  0  0
   -2.0416    3.3003   26.0671 O   0  0  0  0  0  0  0  0  0  0  0  0
   -2.0514    1.2915   27.0787 N   0  0  0  0  0  4  0  0  0  0  0  0
   -2.7231    0.2809   27.6501 C   0  0  0  0  0  0  0  0  0  0  0  0
   -2.0530   -0.7929   28.1253 N   0  0  0  0  0  0  0  0  0  0  0  0
   -4.0624    0.3077   27.7579 N   0  0  0  0  0  0  0  0  0  0  0  0
   -4.7527    1.3698   27.2805 C   0  0  0  0  0  0  0  0  0  0  0  0
   -7.2818    3.4036   26.4853 O   0  0  0  0  0  0  0  0  0  0  0  0
   -5.9149   -1.3235   22.5638 H   0  0  0  0  0  0  0  0  0  0  0  0
   -5.8707    1.2868   22.2757 H   0  0  0  0  0  0  0  0  0  0  0  0
   -9.2718   -1.4963   24.8702 H   0  0  0  0  0  0  0  0  0  0  0  0
   -7.5366   -1.5209   25.2214 H   0  0  0  0  0  0  0  0  0  0  0  0
   -9.7533   -0.6762   26.8941 H   0  0  0  0  0  0  0  0  0  0  0  0
   -7.7537   -2.4003   27.2928 H   0  0  0  0  0  0  0  0  0  0  0  0
   -8.8199   -0.6218   29.2560 H   0  0  0  0  0  0  0  0  0  0  0  0
   -6.3286   -0.7957   28.9597 H   0  0  0  0  0  0  0  0  0  0  0  0
   -5.8561   -0.8766   27.3299 H   0  0  0  0  0  0  0  0  0  0  0  0
   -7.4807    1.2369   28.7206 H   0  0  0  0  0  0  0  0  0  0  0  0
   -4.8161    4.2236   25.8426 H   0  0  0  0  0  0  0  0  0  0  0  0
   -1.0704    1.2427   27.0124 H   0  0  0  0  0  0  0  0  0  0  0  0
   -1.0718   -0.8311   28.0556 H   0  0  0  0  0  0  0  0  0  0  0  0
   -2.5462   -1.5367   28.5410 H   0  0  0  0  0  0  0  0  0  0  0  0
  2  1  1  6
  2  3  2  0
  2  4  1  0
  2  5  1  0
  5  6  1  0
  7  6  1  0
  7  8  1  0
  7  9  1  0
  9 10  1  0
  9 11  1  0
  8 12  1  0
 11 12  1  0
 12 13  1  0
 13 14  4  0
 14 15  4  0
 15 16  4  0
 16 17  4  0
 17 18  2  0
 17 19  4  0
 19 20  4  0
 20 21  1  0
 20 22  4  0
 13 23  4  0
 16 23  4  0
 22 23  4  0
 14 24  2  0
  1 25  1  0
  4 26  1  0
  6 27  1  0
  6 28  1  0
  7 29  1  6
  9 30  1  1
 10 31  1  0
 11 32  1  0
 11 33  1  0
 12 34  1  6
 15 35  1  0
 19 36  1  0
 21 37  1  0
 21 38  1  0
M  CHG  3  13   1  15   1  19   1
M  END
