7UAS_MBU_B_401
     RDKit          3D

 40 45  0  0  0  0  0  0  0  0999 V2000
  -13.7559  -25.7867  -22.3227 C   0  0  0  0  0  0  0  0  0  0  0  0
  -12.2155  -27.0797  -19.9177 C   0  0  0  0  0  0  0  0  0  0  0  0
  -13.6932  -23.8347  -19.2571 C   0  0  0  0  0  0  0  0  0  0  0  0
  -15.6859  -24.8028  -27.9155 C   0  0  2  0  0  0  0  0  0  0  0  0
  -12.2461  -21.3078  -28.6871 C   0  0  0  0  0  0  0  0  0  0  0  0
  -10.8404  -21.4226  -28.1436 C   0  0  0  0  0  0  0  0  0  0  0  0
  -20.1043  -20.5129  -22.1540 C   0  0  0  0  0  0  0  0  0  0  0  0
  -21.5568  -20.9485  -22.2203 C   0  0  0  0  0  0  0  0  0  0  0  0
  -22.7190  -22.8567  -26.6617 C   0  0  0  0  0  0  0  0  0  0  0  0
  -20.3127  -23.8277  -25.9804 C   0  0  0  0  0  0  0  0  0  0  0  0
  -18.0535  -21.6230  -24.8834 C   0  0  0  0  0  0  0  0  0  0  0  0
  -20.2330  -22.4421  -23.8975 C   0  0  1  0  0  0  0  0  0  0  0  0
  -18.0300  -23.3247  -23.1286 C   0  0  0  0  0  0  0  0  0  0  0  0
  -16.6783  -23.7217  -23.5585 C   0  0  0  0  0  0  0  0  0  0  0  0
  -16.2244  -23.2432  -24.7683 C   0  0  0  0  0  0  0  0  0  0  0  0
  -17.0088  -22.3787  -25.6691 C   0  0  0  0  0  0  0  0  0  0  0  0
  -14.9314  -23.6296  -25.1451 C   0  0  0  0  0  0  0  0  0  0  0  0
  -14.1624  -24.4509  -24.3326 C   0  0  0  0  0  0  0  0  0  0  0  0
  -14.6355  -24.9250  -23.1156 C   0  0  0  0  0  0  0  0  0  0  0  0
  -15.9094  -24.5438  -22.7446 C   0  0  0  0  0  0  0  0  0  0  0  0
  -12.9139  -25.7693  -19.9359 C   0  0  0  0  0  0  0  0  0  0  0  0
  -14.0412  -24.0601  -20.5674 C   0  0  0  0  0  0  0  0  0  0  0  0
  -14.7047  -23.7364  -27.6287 C   0  0  0  0  0  0  0  0  0  0  0  0
  -14.3456  -23.1874  -26.3920 C   0  0  0  0  0  0  0  0  0  0  0  0
  -13.3905  -22.2201  -26.6338 C   0  0  0  0  0  0  0  0  0  0  0  0
  -20.6927  -21.0907  -23.4141 C   0  0  2  0  0  0  0  0  0  0  0  0
  -22.1448  -23.7860  -27.5113 C   0  0  0  0  0  0  0  0  0  0  0  0
  -20.9274  -22.8818  -25.1415 C   0  0  0  0  0  0  0  0  0  0  0  0
  -20.9074  -24.2704  -27.1393 C   0  0  0  0  0  0  0  0  0  0  0  0
  -20.2456  -25.2673  -28.0119 C   0  0  0  0  0  0  0  0  0  0  0  0
  -15.1989  -25.9994  -27.4123 F   0  0  0  0  0  0  0  0  0  0  0  0
  -15.8411  -25.0379  -29.2648 F   0  0  0  0  0  0  0  0  0  0  0  0
  -16.8957  -24.6358  -27.2702 F   0  0  0  0  0  0  0  0  0  0  0  0
  -18.8072  -22.4718  -23.9654 N   0  0  0  0  0  0  0  0  0  0  0  0
  -12.9876  -24.9189  -18.8832 N   0  0  0  0  0  0  0  0  0  0  0  0
  -13.5639  -25.2520  -20.9934 N   0  0  0  0  0  0  0  0  0  0  0  0
  -13.9411  -23.0627  -28.5342 N   0  0  0  0  0  0  0  0  0  0  0  0
  -13.1688  -22.1730  -27.9594 N   0  0  0  0  0  0  0  0  0  0  0  0
  -22.1150  -22.4446  -25.5389 N   0  0  0  0  0  0  0  0  0  0  0  0
  -18.4304  -23.7575  -22.0487 O   0  0  0  0  0  0  0  0  0  0  0  0
  5  6  1  0
  7  8  1  0
 13 14  1  0
 14 15  2  0
 11 16  1  0
 15 16  1  0
 15 17  1  0
 17 18  2  0
 18 19  1  0
  1 19  1  0
 14 20  1  0
 19 20  2  0
  2 21  1  0
  3 22  2  0
  4 23  1  0
 17 24  1  0
 23 24  1  0
 24 25  2  0
 26  8  1  1
  7 26  1  0
 12 26  1  0
  9 27  2  0
 12 28  1  0
 10 28  1  0
 27 29  1  0
 10 29  2  0
 29 30  1  0
  4 31  1  1
  4 32  1  0
  4 33  1  0
 12 34  1  6
 11 34  1  0
 13 34  1  0
 21 35  2  0
  3 35  1  0
  1 36  1  0
 21 36  1  0
 22 36  1  0
 23 37  2  0
 37 38  1  0
 25 38  1  0
  5 38  1  0
  9 39  1  0
 28 39  2  0
 13 40  2  0
M  END
$$$$
