7BHX_TO5_A_402
     RDKit          3D

 34 36  0  0  0  0  0  0  0  0999 V2000
   32.3289   55.1575   12.5342 C   0  0  0  0  0  0  0  0  0  0  0  0
   31.3173   53.0362   13.4499 C   0  0  0  0  0  0  0  0  0  0  0  0
   32.7462   51.4668   14.4217 C   0  0  0  0  0  0  0  0  0  0  0  0
   32.9134   48.8599   18.6336 C   0  0  0  0  0  0  0  0  0  0  0  0
   32.4990   49.2033   16.4057 C   0  0  0  0  0  0  0  0  0  0  0  0
   30.5771   51.9325   15.4664 C   0  0  0  0  0  0  0  0  0  0  0  0
   29.6355   51.6562   16.4577 C   0  0  0  0  0  0  0  0  0  0  0  0
   28.3770   52.2264   16.3733 C   0  0  0  0  0  0  0  0  0  0  0  0
   28.0259   53.0603   15.3290 C   0  0  0  0  0  0  0  0  0  0  0  0
   28.9546   53.3306   14.3347 C   0  0  0  0  0  0  0  0  0  0  0  0
   30.2371   52.7757   14.3915 C   0  0  0  0  0  0  0  0  0  0  0  0
   27.2118   51.8967   17.6251 Cl  0  0  0  0  0  0  0  0  0  0  0  0
   31.3174   54.0783   12.5722 N   0  0  0  0  0  0  0  0  0  0  0  0
   30.3820   54.1181   11.4484 C   0  0  0  0  0  0  0  0  0  0  0  0
   31.8560   51.3615   15.5093 N   0  0  0  0  0  4  0  0  0  0  0  0
   33.7653   50.7863   14.4410 O   0  0  0  0  0  0  0  0  0  0  0  0
   32.4493   52.3236   13.3968 N   0  0  0  0  0  0  0  0  0  0  0  0
   32.2186   50.5241   16.6158 C   0  0  0  0  0  0  0  0  0  0  0  0
   32.8433   48.3662   17.3873 N   0  0  0  0  0  0  0  0  0  0  0  0
   32.6360   50.1746   18.9474 C   0  0  0  0  0  0  0  0  0  0  0  0
   32.2823   51.0309   17.9148 C   0  0  0  0  0  0  0  0  0  0  0  0
   32.9770   55.0690   13.3809 H   0  0  0  0  0  0  0  0  0  0  0  0
   32.9035   55.0763   11.6352 H   0  0  0  0  0  0  0  0  0  0  0  0
   31.8378   56.1078   12.5589 H   0  0  0  0  0  0  0  0  0  0  0  0
   33.1892   48.2228   19.3972 H   0  0  0  0  0  0  0  0  0  0  0  0
   32.4420   48.8357   15.4430 H   0  0  0  0  0  0  0  0  0  0  0  0
   29.8744   51.0337   17.2453 H   0  0  0  0  0  0  0  0  0  0  0  0
   27.0829   53.4776   15.2892 H   0  0  0  0  0  0  0  0  0  0  0  0
   28.6972   53.9457   13.5470 H   0  0  0  0  0  0  0  0  0  0  0  0
   30.5423   55.0119   10.8824 H   0  0  0  0  0  0  0  0  0  0  0  0
   30.5412   53.2657   10.8215 H   0  0  0  0  0  0  0  0  0  0  0  0
   29.3784   54.1059   11.8191 H   0  0  0  0  0  0  0  0  0  0  0  0
   32.6900   50.5110   19.9215 H   0  0  0  0  0  0  0  0  0  0  0  0
   32.0704   52.0232   18.1033 H   0  0  0  0  0  0  0  0  0  0  0  0
  6  7  4  0
  7  8  4  0
  8  9  4  0
  9 10  4  0
  2 11  4  0
 10 11  4  0
  6 11  4  0
  8 12  1  0
  1 13  1  0
  2 13  1  0
 13 14  1  0
  3 15  4  0
  6 15  4  0
  3 16  2  0
  2 17  4  0
  3 17  4  0
 15 18  1  0
  5 18  4  0
  5 19  4  0
  4 19  4  0
  4 20  4  0
 18 21  4  0
 20 21  4  0
  1 22  1  0
  1 23  1  0
  1 24  1  0
  4 25  1  0
  5 26  1  0
  7 27  1  0
  9 28  1  0
 10 29  1  0
 14 30  1  0
 14 31  1  0
 14 32  1  0
 20 33  1  0
 21 34  1  0
M  CHG  1  15   1
M  END
