8CI0_8EL_CCC_1002
     RDKit          3D

 26 27  0  0  0  0  0  0  0  0999 V2000
   -7.2981   67.4715   31.7529 C   0  0  0  0  0  0  0  0  0  0  0  0
   -6.2125   67.0391   32.5723 C   0  0  0  0  0  0  0  0  0  0  0  0
   -5.1985   66.3922   31.8969 C   0  0  0  0  0  0  0  0  0  0  0  0
   -5.2226   66.1308   30.5662 N   0  0  0  0  0  0  0  0  0  0  0  0
   -7.3350   67.2120   30.4115 N   0  0  0  0  0  0  0  0  0  0  0  0
   -6.2993   66.5403   29.8821 C   0  0  0  0  0  0  0  0  0  0  0  0
   -6.1358   68.6520   36.8390 C   0  0  0  0  0  0  0  0  0  0  0  0
   -6.3484   66.2346   28.4222 C   0  0  0  0  0  0  0  0  0  0  0  0
   -8.3500   72.4327   36.2408 C   0  0  0  0  0  0  0  0  0  0  0  0
   -8.0223   71.1219   36.7789 C   0  0  0  0  0  0  0  0  0  0  0  0
   -8.1140   68.6768   33.7459 C   0  0  0  0  0  0  0  0  0  0  0  0
   -6.1258   67.3089   34.0652 C   0  0  0  0  0  0  0  0  0  0  0  0
   -7.0356   69.0225   35.7132 C   0  0  0  0  0  0  0  0  0  0  0  0
   -7.8733   70.0757   35.7084 C   0  0  0  0  0  0  0  0  0  0  0  0
   -8.3723   68.0946   32.2883 N   0  0  0  0  0  0  0  0  0  0  0  0
   -7.0962   68.3183   34.5101 N   0  0  0  0  0  0  0  0  0  0  0  0
   -9.1886   76.7893   39.1378 O   0  0  0  0  0  0  0  0  0  0  0  0
   -7.4928   75.1088   35.5418 O   0  0  0  0  0  0  0  0  0  0  0  0
  -10.8812   77.5221   37.3877 O   0  0  0  0  0  0  0  0  0  0  0  0
  -11.3280   75.5046   38.6973 O   0  0  0  0  0  0  0  0  0  0  0  0
   -7.2358   75.5422   38.0696 O   0  0  0  0  0  0  0  0  0  0  0  0
   -8.1287   73.4016   37.2897 O   0  0  0  0  0  0  0  0  0  0  0  0
   -9.4845   75.4878   36.9789 O   0  0  0  0  0  0  0  0  0  0  0  0
  -10.2478   76.3698   38.0887 P   0  0  2  0  0  0  0  0  0  0  0  0
   -7.9829   74.9360   36.9374 P   0  0  2  0  0  0  0  0  0  0  0  0
   -8.7663   70.1747   34.2357 S   0  0  0  0  0  0  0  0  0  0  0  0
  1  2  2  0
  2  3  1  0
  3  4  2  0
  1  5  1  0
  5  6  2  0
  4  6  1  0
  6  8  1  0
  9 10  1  0
  2 12  1  0
  7 13  1  0
 10 14  1  0
 13 14  2  0
  1 15  1  0
 11 16  1  0
 12 16  1  0
 13 16  1  0
  9 22  1  0
 17 24  2  0
 24 20  1  1
 23 24  1  0
 19 24  1  0
 18 25  2  0
 23 25  1  0
 25 21  1  1
 22 25  1  0
 11 26  1  0
 14 26  1  0
M  END
