
     RDKit          3D

 25 27  0  0  0  0  0  0  0  0999 V2000
   -9.8137    8.4275  -25.6050 N   0  0  0  0  0  0  0  0  0  0  0  0
  -11.5828    9.9273  -26.0828 C   0  0  0  0  0  0  0  0  0  0  0  0
  -12.9017   11.5980  -25.9504 C   0  0  0  0  0  0  0  0  0  0  0  0
   -9.4867    9.2491  -24.5850 C   0  0  0  0  0  0  0  0  0  0  0  0
  -10.8664    8.7589  -26.3870 C   0  0  0  0  0  0  0  0  0  0  0  0
  -10.0889   10.3951  -24.2051 N   0  0  0  0  0  0  0  0  0  0  0  0
  -11.1343   10.6728  -25.0033 C   0  0  0  0  0  0  0  0  0  0  0  0
  -15.4449   19.0632  -25.4361 O   0  0  0  0  0  0  0  0  0  0  0  0
  -15.2572   18.7965  -24.1260 C   0  0  0  0  0  0  0  0  0  0  0  0
  -14.1848   19.0479  -23.5992 O   0  0  0  0  0  0  0  0  0  0  0  0
  -16.4421   18.0957  -23.4691 C   0  0  1  0  0  0  0  0  0  0  0  0
  -17.5555   17.9337  -24.4390 N   0  0  0  0  0  0  0  0  0  0  0  0
  -15.9274   16.7588  -22.9131 C   0  0  0  0  0  0  0  0  0  0  0  0
  -16.0268   15.4183  -24.1576 S   0  0  0  0  0  0  0  0  0  0  0  0
  -15.2466   14.0638  -23.2007 C   0  0  0  0  0  0  0  0  0  0  0  0
  -13.7138   14.1372  -23.2102 C   0  0  1  0  0  0  0  0  0  0  0  0
  -13.1264   12.8266  -23.2246 O   0  0  0  0  0  0  0  0  0  0  0  0
  -13.1959   14.8604  -24.4552 C   0  0  1  0  0  0  0  0  0  0  0  0
  -13.1388   16.2687  -24.2463 O   0  0  0  0  0  0  0  0  0  0  0  0
  -11.8142   14.2533  -24.6635 C   0  0  1  0  0  0  0  0  0  0  0  0
  -10.8138   15.0455  -23.9964 O   0  0  0  0  0  0  0  0  0  0  0  0
  -11.9324   12.8620  -24.0284 C   0  0  2  0  0  0  0  0  0  0  0  0
  -11.9881   11.7376  -24.9345 N   0  0  0  0  0  0  0  0  0  0  0  0
  -12.6961   10.5066  -26.6536 N   0  0  0  0  0  0  0  0  0  0  0  0
  -11.2002    7.9142  -27.4432 N   0  0  0  0  0  0  0  0  0  0  0  0
  1  4  4  0
  1  5  4  0
  2  5  4  0
  4  6  4  0
  6  7  4  0
  2  7  4  0
  8  9  1  0
  9 10  2  0
  9 11  1  0
 11 12  1  6
 11 13  1  0
 13 14  1  0
 14 15  1  0
 16 15  1  6
 16 17  1  0
 16 18  1  0
 18 19  1  1
 18 20  1  0
 20 21  1  1
 17 22  1  0
 20 22  1  0
 22 23  1  6
  7 23  4  0
  3 23  4  0
  2 24  4  0
  3 24  4  0
  5 25  1  0
M  END
