1YWR_LI9_A_361
     RDKit          3D

 64 68  0  0  0  0  0  0  0  0999 V2000
   -1.2749    3.0321   -1.4740 C   0  0  0  0  0  0  0  0  0  0  0  0
    0.3855    5.2813   -1.5086 C   0  0  0  0  0  0  0  0  0  0  0  0
    0.0970    2.8864   -1.2016 C   0  0  0  0  0  0  0  0  0  0  0  0
   -1.8104    4.2935   -1.7481 C   0  0  0  0  0  0  0  0  0  0  0  0
   -0.9812    5.4180   -1.7653 C   0  0  0  0  0  0  0  0  0  0  0  0
    0.9242    4.0216   -1.2302 C   0  0  0  0  0  0  0  0  0  0  0  0
    0.6716    1.5543   -0.9007 C   0  0  0  0  0  0  0  0  0  0  0  0
   -1.5016    6.6408   -2.0340 F   0  0  0  0  0  0  0  0  0  0  0  0
    2.0153   -0.2481   -0.9665 N   0  0  0  0  0  0  0  0  0  0  0  0
    3.1486   -1.1711   -1.2244 C   0  0  0  0  0  0  0  0  0  0  0  0
    0.7812   -1.7973    0.5499 C   0  0  0  0  0  0  0  0  0  0  0  0
    0.1393    0.5302   -0.1265 C   0  0  0  0  0  0  0  0  0  0  0  0
   -1.1206    0.5882    0.6471 C   0  0  0  0  0  0  0  0  0  0  0  0
    2.6201    1.6290   -2.1827 O   0  0  0  0  0  0  0  0  0  0  0  0
    1.8443    1.0240   -1.4013 C   0  0  0  0  0  0  0  0  0  0  0  0
    0.9832   -0.5324   -0.1666 N   0  0  0  0  0  0  0  0  0  0  0  0
    5.0488   -0.1314   -2.7004 C   0  0  0  0  0  0  0  0  0  0  0  0
    5.2577   -0.0736   -0.3127 C   0  0  0  0  0  0  0  0  0  0  0  0
    4.1763   -1.1215   -0.0743 C   0  0  0  0  0  0  0  0  0  0  0  0
    3.7984   -1.0361   -2.6337 C   0  0  0  0  0  0  0  0  0  0  0  0
    5.9496   -0.3693   -1.5689 N   0  0  0  0  0  0  0  0  0  0  0  0
   -2.0292   -0.4181    0.5394 N   0  0  0  0  0  0  0  0  0  0  0  0
   -2.6386    1.7298    2.1120 C   0  0  0  0  0  0  0  0  0  0  0  0
   -4.1991   -1.4199    1.0538 N   0  0  0  0  0  0  0  0  0  0  0  0
   -1.4118    1.6919    1.4569 C   0  0  0  0  0  0  0  0  0  0  0  0
   -3.2244   -0.3703    1.1882 C   0  0  0  0  0  0  0  0  0  0  0  0
   -3.5193    0.7066    1.9633 N   0  0  0  0  0  0  0  0  0  0  0  0
   -4.0609   -2.6922    0.3235 C   0  0  2  0  0  0  0  0  0  0  0  0
   -3.5152   -3.7834    1.2230 C   0  0  0  0  0  0  0  0  0  0  0  0
   -3.2588   -2.5751   -0.9797 C   0  0  0  0  0  0  0  0  0  0  0  0
   -2.5064   -5.8363    2.8633 C   0  0  0  0  0  0  0  0  0  0  0  0
   -2.3202   -3.6031    1.9411 C   0  0  0  0  0  0  0  0  0  0  0  0
   -4.2001   -5.0098    1.3408 C   0  0  0  0  0  0  0  0  0  0  0  0
   -3.6998   -6.0269    2.1615 C   0  0  0  0  0  0  0  0  0  0  0  0
   -1.8164   -4.6249    2.7514 C   0  0  0  0  0  0  0  0  0  0  0  0
   -1.9299    2.1707   -1.4864 H   0  0  0  0  0  0  0  0  0  0  0  0
    1.0292    6.1515   -1.5234 H   0  0  0  0  0  0  0  0  0  0  0  0
   -2.8680    4.3961   -1.9508 H   0  0  0  0  0  0  0  0  0  0  0  0
    1.9829    3.9366   -1.0188 H   0  0  0  0  0  0  0  0  0  0  0  0
    2.7260   -2.2014   -1.2212 H   0  0  0  0  0  0  0  0  0  0  0  0
    0.2560   -1.6149    1.5109 H   0  0  0  0  0  0  0  0  0  0  0  0
    0.1928   -2.4947   -0.0825 H   0  0  0  0  0  0  0  0  0  0  0  0
    1.7457   -2.2764    0.8136 H   0  0  0  0  0  0  0  0  0  0  0  0
    4.7846    0.9439   -2.7564 H   0  0  0  0  0  0  0  0  0  0  0  0
    5.5929   -0.3597   -3.6434 H   0  0  0  0  0  0  0  0  0  0  0  0
    4.8153    0.9507   -0.3251 H   0  0  0  0  0  0  0  0  0  0  0  0
    5.9860   -0.1203    0.5258 H   0  0  0  0  0  0  0  0  0  0  0  0
    3.6724   -0.9010    0.8900 H   0  0  0  0  0  0  0  0  0  0  0  0
    4.6629   -2.1164    0.0223 H   0  0  0  0  0  0  0  0  0  0  0  0
    3.0455   -0.6973   -3.3775 H   0  0  0  0  0  0  0  0  0  0  0  0
    4.1223   -2.0503   -2.9594 H   0  0  0  0  0  0  0  0  0  0  0  0
    6.7492    0.3029   -1.6527 H   0  0  0  0  0  0  0  0  0  0  0  0
   -2.8956    2.5776    2.7312 H   0  0  0  0  0  0  0  0  0  0  0  0
   -5.0874   -1.2976    1.5901 H   0  0  0  0  0  0  0  0  0  0  0  0
   -0.7068    2.5062    1.5723 H   0  0  0  0  0  0  0  0  0  0  0  0
   -5.0893   -2.9800    0.0096 H   0  0  0  0  0  0  0  0  0  0  0  0
   -3.4593   -3.4644   -1.6177 H   0  0  0  0  0  0  0  0  0  0  0  0
   -3.5648   -1.6690   -1.5448 H   0  0  0  0  0  0  0  0  0  0  0  0
   -2.1672   -2.5390   -0.7881 H   0  0  0  0  0  0  0  0  0  0  0  0
   -2.1207   -6.6224    3.4998 H   0  0  0  0  0  0  0  0  0  0  0  0
   -1.7867   -2.6712    1.8860 H   0  0  0  0  0  0  0  0  0  0  0  0
   -5.1208   -5.1783    0.7956 H   0  0  0  0  0  0  0  0  0  0  0  0
   -4.2369   -6.9650    2.2517 H   0  0  0  0  0  0  0  0  0  0  0  0
   -0.8964   -4.4735    3.3016 H   0  0  0  0  0  0  0  0  0  0  0  0
  1  3  2  0
  1  4  1  0
  2  5  1  0
  4  5  2  0
  2  6  2  0
  3  6  1  0
  3  7  1  0
  5  8  1  0
  9 10  1  0
  7 12  2  0
 12 13  1  0
  7 15  1  0
  9 15  1  0
 14 15  2  0
  9 16  1  0
 11 16  1  0
 12 16  1  0
 10 19  1  0
 18 19  1  0
 10 20  1  0
 17 20  1  0
 17 21  1  0
 18 21  1  0
 13 22  2  0
 13 25  1  0
 23 25  2  0
 22 26  1  0
 24 26  1  0
 23 27  1  0
 26 27  2  0
 24 28  1  0
 28 29  1  0
 28 30  1  0
 29 32  1  0
 29 33  2  0
 31 34  2  0
 33 34  1  0
 31 35  1  0
 32 35  2  0
  1 36  1  0
  2 37  1  0
  4 38  1  0
  6 39  1  0
 10 40  1  0
 11 41  1  0
 11 42  1  0
 11 43  1  0
 17 44  1  0
 17 45  1  0
 18 46  1  0
 18 47  1  0
 19 48  1  0
 19 49  1  0
 20 50  1  0
 20 51  1  0
 21 52  1  0
 23 53  1  0
 24 54  1  0
 25 55  1  0
 28 56  1  6
 30 57  1  0
 30 58  1  0
 30 59  1  0
 31 60  1  0
 32 61  1  0
 33 62  1  0
 34 63  1  0
 35 64  1  0
M  END
