@<TRIPOS>MOLECULE
1YWR_LI9_A_361
 64 68 0 0 0
SMALL
GASTEIGER

@<TRIPOS>ATOM
      1 C           5.4490   -0.5080   18.6240 C.ar    1  UNL1       -0.0511
      2 C           4.5650   -0.8100   16.0060 C.ar    1  UNL1       -0.0259
      3 C           4.1820   -1.0730   18.3820 C.ar    1  UNL1       -0.0104
      4 C           6.2850   -0.0910   17.5860 C.ar    1  UNL1       -0.0259
      5 C           5.8100   -0.2570   16.2890 C.ar    1  UNL1        0.1234
      6 C           3.7370   -1.2240   17.0600 C.ar    1  UNL1       -0.0511
      7 C           3.3810   -1.4790   19.5430 C.ar    1  UNL1        0.0749
      8 F           6.5990    0.1370   15.2950 F       1  UNL1       -0.2055
      9 N           2.1750   -2.9890   20.8490 N.ar    1  UNL1       -0.2458
     10 C           1.4800   -4.1590   21.3750 C.3     1  UNL1        0.0569
     11 C           1.5760   -1.6340   22.7780 C.3     1  UNL1        0.0292
     12 C           2.9080   -0.8680   20.6510 C.ar    1  UNL1        0.0966
     13 C           3.0750    0.5310   21.0580 C.ar    1  UNL1        0.0945
     14 O           3.0970   -3.8030   18.8770 O.2     1  UNL1       -0.2655
     15 C           2.8950   -2.9020   19.6670 C.ar    1  UNL1        0.2758
     16 N           2.1780   -1.7310   21.4660 N.ar    1  UNL1       -0.2814
     17 C          -0.5900   -5.5720   21.2130 C.3     1  UNL1       -0.0022
     18 C           1.5360   -6.6780   21.4960 C.3     1  UNL1       -0.0022
     19 C           2.3150   -5.4200   21.1320 C.3     1  UNL1       -0.0178
     20 C           0.0810   -4.2770   20.7600 C.3     1  UNL1       -0.0178
     21 N           0.2420   -6.7070   20.8160 N.3     1  UNL1       -0.3158
     22 N           3.2280    0.8200   22.3590 N.ar    1  UNL1       -0.2129
     23 C           3.2290    2.8090   20.5140 C.ar    1  UNL1        0.0333
     24 N           3.5370    2.4650   23.9890 N.pl3   1  UNL1       -0.3069
     25 C           3.0690    1.5140   20.0850 C.ar    1  UNL1       -0.0159
     26 C           3.3780    2.1050   22.6890 C.ar    1  UNL1        0.2162
     27 N           3.3840    3.1140   21.8130 N.ar    1  UNL1       -0.2229
     28 C           3.4450    1.5650   25.0990 C.3     1  UNL1        0.0457
     29 C           2.1050    0.8860   25.2920 C.ar    1  UNL1       -0.0275
     30 C           3.7960    2.3060   26.4050 C.3     1  UNL1       -0.0424
     31 C          -0.3270   -0.4290   25.6950 C.ar    1  UNL1       -0.0617
     32 C           2.0630   -0.3090   26.0290 C.ar    1  UNL1       -0.0568
     33 C           0.9180    1.4030   24.7670 C.ar    1  UNL1       -0.0568
     34 C          -0.2990    0.7500   24.9650 C.ar    1  UNL1       -0.0614
     35 C           0.8460   -0.9520   26.2220 C.ar    1  UNL1       -0.0614
     36 H           5.7697   -0.3987   19.5988 H       1  UNL1        0.0625
     37 H           4.2530   -0.9148   15.0279 H       1  UNL1        0.0646
     38 H           7.2125    0.3213   17.7725 H       1  UNL1        0.0646
     39 H           2.8107   -1.6351   16.8651 H       1  UNL1        0.0625
     40 H           1.3552   -4.0462   22.4317 H       1  UNL1        0.0546
     41 H           1.1000   -2.5608   23.0214 H       1  UNL1        0.0472
     42 H           0.8494   -0.8486   22.7798 H       1  UNL1        0.0472
     43 H           2.3334   -1.4209   23.5031 H       1  UNL1        0.0472
     44 H          -1.5530   -5.6560   20.7542 H       1  UNL1        0.0425
     45 H          -0.7056   -5.5648   22.2767 H       1  UNL1        0.0425
     46 H           1.3761   -6.6969   22.5538 H       1  UNL1        0.0425
     47 H           2.1028   -7.5316   21.1877 H       1  UNL1        0.0425
     48 H           3.2004   -5.3727   21.7310 H       1  UNL1        0.0298
     49 H           2.5636   -5.4655   20.0923 H       1  UNL1        0.0298
     50 H           0.1633   -4.2766   19.6932 H       1  UNL1        0.0298
     51 H          -0.5119   -3.4467   21.0824 H       1  UNL1        0.0298
     52 H           0.3950   -6.6709   19.8082 H       1  UNL1        0.1219
     53 H           3.2302    3.5705   19.8175 H       1  UNL1        0.0831
     54 H           3.7290    3.4112   24.1817 H       1  UNL1        0.1495
     55 H           2.9501    1.2857   19.0856 H       1  UNL1        0.0655
     56 H           4.1423    0.7879   24.8647 H       1  UNL1        0.0545
     57 H           3.0684    3.0687   26.5889 H       1  UNL1        0.0251
     58 H           4.7644    2.7516   26.3130 H       1  UNL1        0.0251
     59 H           3.7987    1.6118   27.2193 H       1  UNL1        0.0251
     60 H          -1.2225   -0.9189   25.8469 H       1  UNL1        0.0618
     61 H           2.9294   -0.7066   26.4243 H       1  UNL1        0.0621
     62 H           0.9417    2.2808   24.2248 H       1  UNL1        0.0621
     63 H          -1.1698    1.1404   24.5721 H       1  UNL1        0.0618
     64 H           0.8140   -1.8296   26.7641 H       1  UNL1        0.0618
@<TRIPOS>BOND
     1     1     3   ar
     2     1     4   ar
     3     2     5   ar
     4     4     5   ar
     5     2     6   ar
     6     3     6   ar
     7     3     7    1
     8     5     8    1
     9     9    10    1
    10     7    12   ar
    11    12    13    1
    12     7    15   ar
    13     9    15   ar
    14    14    15    2
    15     9    16   ar
    16    11    16    1
    17    12    16   ar
    18    10    19    1
    19    18    19    1
    20    10    20    1
    21    17    20    1
    22    17    21    1
    23    18    21    1
    24    13    22   ar
    25    13    25   ar
    26    23    25   ar
    27    22    26   ar
    28    24    26    1
    29    23    27   ar
    30    26    27   ar
    31    24    28    1
    32    28    29    1
    33    28    30    1
    34    29    32   ar
    35    29    33   ar
    36    31    34   ar
    37    33    34   ar
    38    31    35   ar
    39    32    35   ar
    40     1    36    1
    41     2    37    1
    42     4    38    1
    43     6    39    1
    44    10    40    1
    45    11    41    1
    46    11    42    1
    47    11    43    1
    48    17    44    1
    49    17    45    1
    50    18    46    1
    51    18    47    1
    52    19    48    1
    53    19    49    1
    54    20    50    1
    55    20    51    1
    56    21    52    1
    57    23    53    1
    58    24    54    1
    59    25    55    1
    60    28    56    1
    61    30    57    1
    62    30    58    1
    63    30    59    1
    64    31    60    1
    65    32    61    1
    66    33    62    1
    67    34    63    1
    68    35    64    1
