8BPL_CP_A_2401
     RDKit          3D

  8  7  0  0  0  0  0  0  0  0999 V2000
  -28.3235   30.9720    9.7172 N   0  0  0  0  0  0  0  0  0  0  0  0
  -27.0262   31.4220   10.0648 C   0  0  0  0  0  0  0  0  0  0  0  0
  -26.7613   31.7696   11.2453 O   0  0  0  0  0  0  0  0  0  0  0  0
  -26.0613   31.4662    9.0625 O   0  0  0  0  0  0  0  0  0  0  0  0
  -24.5206   32.1596    9.3827 P   0  0  2  0  0  0  0  0  0  0  0  0
  -23.7443   31.2823   10.3430 O   0  0  0  0  0  0  0  0  0  0  0  0
  -24.6417   33.7073   10.0141 O   0  0  0  0  0  0  0  0  0  0  0  0
  -23.7041   32.2501    7.8811 O   0  0  0  0  0  0  0  0  0  0  0  0
  1  2  1  0
  2  3  2  0
  2  4  1  0
  4  5  1  0
  5  6  2  0
  5  7  1  1
  5  8  1  0
M  END
$$$$
