7PGX_FMN_AAA_618
     RDKit          3D

 31 33  0  0  0  0  0  0  0  0999 V2000
  -20.7071    0.6480   -5.5773 N   0  0  0  0  0  0  0  0  0  0  0  0
  -20.8769   -0.6188   -5.1421 C   0  0  0  0  0  0  0  0  0  0  0  0
  -22.0645   -0.9534   -4.8665 O   0  0  0  0  0  0  0  0  0  0  0  0
  -19.8826   -1.4892   -4.9991 N   0  0  0  0  0  0  0  0  0  0  0  0
  -18.5986   -1.1421   -5.2923 C   0  0  0  0  0  0  0  0  0  0  0  0
  -17.6533   -1.9604   -5.1594 O   0  0  0  0  0  0  0  0  0  0  0  0
  -18.3309    0.1332   -5.7441 C   0  0  0  0  0  0  0  0  0  0  0  0
  -17.0956    0.5644   -6.0577 N   0  0  0  0  0  0  0  0  0  0  0  0
  -16.9424    1.8460   -6.4953 C   0  0  0  0  0  0  0  0  0  0  0  0
  -15.6487    2.2202   -6.7978 C   0  0  0  0  0  0  0  0  0  0  0  0
  -15.4563    3.5094   -7.2425 C   0  0  0  0  0  0  0  0  0  0  0  0
  -14.0658    3.9554   -7.5819 C   0  0  0  0  0  0  0  0  0  0  0  0
  -16.5027    4.3888   -7.3809 C   0  0  0  0  0  0  0  0  0  0  0  0
  -16.2902    5.7891   -7.8644 C   0  0  0  0  0  0  0  0  0  0  0  0
  -17.7773    3.9661   -7.0654 C   0  0  0  0  0  0  0  0  0  0  0  0
  -18.0236    2.6913   -6.6179 C   0  0  0  0  0  0  0  0  0  0  0  0
  -19.2860    2.3346   -6.3248 N   0  0  0  0  0  0  0  0  0  0  0  0
  -19.4509    1.0544   -5.8858 C   0  0  0  0  0  0  0  0  0  0  0  0
  -20.4281    3.1920   -6.4452 C   0  0  0  0  0  0  0  0  0  0  0  0
  -21.2211    2.9164   -7.7044 C   0  0  2  0  0  0  0  0  0  0  0  0
  -20.4168    3.0806   -8.8392 O   0  0  0  0  0  0  0  0  0  0  0  0
  -22.4457    3.7995   -7.7741 C   0  0  2  0  0  0  0  0  0  0  0  0
  -23.5925    3.1916   -7.2799 O   0  0  0  0  0  0  0  0  0  0  0  0
  -22.5746    4.3033   -9.1881 C   0  0  2  0  0  0  0  0  0  0  0  0
  -21.5606    5.2777   -9.3294 O   0  0  0  0  0  0  0  0  0  0  0  0
  -23.9113    4.9845   -9.4201 C   0  0  0  0  0  0  0  0  0  0  0  0
  -23.9348    5.5589  -10.6689 O   0  0  0  0  0  0  0  0  0  0  0  0
  -25.3899    6.3690  -10.9577 P   0  0  2  0  0  0  0  0  0  0  0  0
  -26.5033    5.4280  -10.5064 O   0  0  0  0  0  0  0  0  0  0  0  0
  -25.5968    6.8102  -12.5567 O   0  0  0  0  0  0  0  0  0  0  0  0
  -25.4823    7.7374   -9.9723 O   0  0  0  0  0  0  0  0  0  0  0  0
  1  2  1  0
  2  3  2  0
  2  4  1  0
  4  5  1  0
  5  6  2  0
  5  7  1  0
  7  8  2  0
  8  9  1  0
  9 10  1  0
 10 11  2  0
 11 12  1  0
 11 13  1  0
 13 14  1  0
 13 15  2  0
  9 16  2  0
 15 16  1  0
 16 17  1  0
  1 18  2  0
  7 18  1  0
 17 18  1  0
 17 19  1  0
 19 20  1  0
 20 21  1  6
 20 22  1  0
 22 23  1  6
 22 24  1  0
 24 25  1  1
 24 26  1  0
 26 27  1  0
 27 28  1  0
 28 29  2  0
 28 30  1  6
 28 31  1  0
M  END
$$$$
