
     RDKit          3D

 19 19  0  0  0  0  0  0  0  0999 V2000
   24.5304   -6.7816   -5.6241 C   0  0  2  0  0  0  0  0  0  0  0  0
   24.4011   -5.2950   -5.2356 C   0  0  2  0  0  0  0  0  0  0  0  0
   22.9193   -4.8489   -5.2024 C   0  0  2  0  0  0  0  0  0  0  0  0
   21.9544   -6.0449   -5.1470 C   0  0  1  0  0  0  0  0  0  0  0  0
   22.5278   -7.2083   -4.3115 C   0  0  0  0  0  0  0  0  0  0  0  0
   22.5381   -6.9508   -2.7940 C   0  0  0  0  0  0  0  0  0  0  0  0
   24.0429   -7.0216   -6.9352 O   0  0  0  0  0  0  0  0  0  0  0  0
   22.5829   -4.0630   -6.3679 O   0  0  0  0  0  0  0  0  0  0  0  0
   23.8403   -7.6323   -4.7138 O   0  0  0  0  0  0  0  0  0  0  0  0
   23.2591   -7.9700   -2.1279 O   0  0  0  0  0  0  0  0  0  0  0  0
   25.2086   -4.4222   -6.0855 N   0  0  0  0  0  0  0  0  0  0  0  0
   25.4716   -3.1331   -5.6776 C   0  0  0  0  0  0  0  0  0  0  0  0
   25.0179   -2.6421   -4.6504 O   0  0  0  0  0  0  0  0  0  0  0  0
   26.3729   -2.3663   -6.6038 C   0  0  0  0  0  0  0  0  0  0  0  0
   22.5085   -9.3611   -1.7646 S   0  0  0  0  0  6  0  0  0  0  0  0
   22.8508   -9.6915   -0.4005 O   0  0  0  0  0  0  0  0  0  0  0  0
   23.2863  -10.4179   -2.6947 O   0  0  0  0  0  0  0  0  0  0  0  0
   21.1428   -9.2796   -2.2216 O   0  0  0  0  0  0  0  0  0  0  0  0
   20.6629   -5.5960   -4.6877 O   0  0  0  0  0  0  0  0  0  0  0  0
  1  2  1  0
  2  3  1  0
  3  4  1  0
  4  5  1  0
  5  6  1  0
  1  7  1  6
  3  8  1  6
  1  9  1  0
  5  9  1  0
  6 10  1  0
  2 11  1  6
 11 12  1  0
 12 13  2  0
 12 14  1  0
 10 15  1  0
 15 16  2  0
 15 17  1  0
 15 18  2  0
  4 19  1  1
M  END
