@<TRIPOS>MOLECULE
1K3U_IAD_A_801
 35 36 0 0 0
SMALL
GASTEIGER

@<TRIPOS>ATOM
      1 OD1        45.2230   28.2880    9.3080 O.3     1  ASP1       -0.4806
      2 CG         45.8570   29.0940   10.1670 C.2     1  ASP1        0.3070
      3 OD2        46.1510   30.3310    9.8700 O.2     1  ASP1       -0.2509
      4 CB         46.2030   28.5530   11.5690 C.3     1  ASP1        0.0735
      5 CA         47.6410   27.9310   11.5210 C.3     1  ASP1        0.1303
      6 C          48.5050   28.5790   10.4430 C.2     1  ASP1        0.3258
      7 O          49.2410   29.6610   10.7560 O.2     1  ASP1       -0.2489
      8 OXT        48.5620   28.0390    9.2970 O.3     1  ASP1       -0.4793
      9 N          48.3210   28.1780   12.7980 N.am    1  ASP1       -0.3017
     10 C          47.8190   27.7160   14.0250 C.2     0  UNK0        0.2181
     11 O          46.8190   27.0240   14.0880 O.2     0  UNK0       -0.2754
     12 C          48.6350   28.0620   15.2670 C.3     0  UNK0        0.0511
     13 C          50.0020   27.3790   15.1760 C.ar    0  UNK0       -0.0136
     14 C          51.2550   28.0140   15.2990 C.ar    0  UNK0        0.0064
     15 N          52.2180   27.0150   15.1780 N.ar    0  UNK0       -0.3604
     16 C          50.2100   25.9880   15.0420 C.ar    0  UNK0        0.0033
     17 C          49.3270   24.9110   14.9690 C.ar    0  UNK0       -0.0523
     18 C          51.5910   25.7880   15.0160 C.ar    0  UNK0        0.0467
     19 C          52.1030   24.4930   14.8910 C.ar    0  UNK0       -0.0378
     20 C          51.2350   23.4210   14.7960 C.ar    0  UNK0       -0.0598
     21 C          49.8650   23.6370   14.8290 C.ar    0  UNK0       -0.0611
     22 HD1        45.0266   27.4049    9.5520 H       1  ASP1        0.2951
     23 HB1        45.4944   27.8026   11.8513 H       1  ASP1        0.0401
     24 HB2        46.1703   29.3462   12.2864 H       1  ASP1        0.0401
     25 HA         47.5228   26.8875   11.3162 H       1  ASP1        0.0620
     26 HXT        48.0377   27.2859    9.1073 H       1  ASP1        0.2951
     27 H          49.1630   28.6882   12.7940 H       1  ASP1        0.1495
     28 H          48.1207   27.7190   16.1404 H       0  UNK0        0.0408
     29 H          48.7657   29.1222   15.3280 H       0  UNK0        0.0408
     30 H          51.4250   29.0208   15.4491 H       0  UNK0        0.0810
     31 H          53.1918   27.1574   15.2035 H       0  UNK0        0.1653
     32 H          48.3063   25.0554   15.0174 H       0  UNK0        0.0624
     33 H          53.1231   24.3381   14.8698 H       0  UNK0        0.0638
     34 H          51.6053   22.4625   14.7008 H       0  UNK0        0.0618
     35 H          49.2277   22.8294   14.7473 H       0  UNK0        0.0618
@<TRIPOS>BOND
     1     1     2    1
     2     2     3    2
     3     2     4    1
     4     5     4    1
     5     5     6    1
     6     6     7    2
     7     6     8    1
     8     5     9    1
     9     9    10   am
    10    10    11    2
    11    10    12    1
    12    12    13    1
    13    13    14   ar
    14    14    15   ar
    15    13    16   ar
    16    16    17   ar
    17    15    18   ar
    18    16    18   ar
    19    18    19   ar
    20    19    20   ar
    21    17    21   ar
    22    20    21   ar
    23     1    22    1
    24     4    23    1
    25     4    24    1
    26     5    25    1
    27     8    26    1
    28     9    27    1
    29    12    28    1
    30    12    29    1
    31    14    30    1
    32    15    31    1
    33    17    32    1
    34    19    33    1
    35    20    34    1
    36    21    35    1
