1K3U_IAD_A_801
     RDKit          3D

 35 36  0  0  0  0  0  0  0  0999 V2000
   -0.9847   -1.2857    1.8387 O   0  0  0  0  0  0  0  0  0  0  0  0
   -0.3710   -0.1323    2.3171 C   0  0  0  0  0  0  0  0  0  0  0  0
   -1.0704    0.8640    2.6448 O   0  0  0  0  0  0  0  0  0  0  0  0
    1.1218   -0.0800    2.4474 C   0  0  0  0  0  0  0  0  0  0  0  0
    1.7362    1.0198    1.5547 C   0  0  1  0  0  0  0  0  0  0  0  0
    3.2406    1.0661    1.6505 C   0  0  0  0  0  0  0  0  0  0  0  0
    3.8328    0.6522    2.6839 O   0  0  0  0  0  0  0  0  0  0  0  0
    3.9802    1.6386    0.6192 O   0  0  0  0  0  0  0  0  0  0  0  0
    1.3146    0.8611    0.1572 N   0  0  0  0  0  0  0  0  0  0  0  0
    1.6339   -0.2823   -0.6528 C   0  0  0  0  0  0  0  0  0  0  0  0
    2.4503   -1.1508   -0.2419 O   0  0  0  0  0  0  0  0  0  0  0  0
    0.9591   -0.4786   -1.9750 C   0  0  0  0  0  0  0  0  0  0  0  0
   -0.2551   -1.3389   -1.8013 C   0  0  0  0  0  0  0  0  0  0  0  0
   -0.2978   -2.7286   -1.8661 C   0  0  0  0  0  0  0  0  0  0  0  0
   -1.5340   -3.1786   -1.5523 N   0  0  0  0  0  0  0  0  0  0  0  0
   -1.5213   -0.9443   -1.4129 C   0  0  0  0  0  0  0  0  0  0  0  0
   -2.0551    0.3173   -1.1474 C   0  0  0  0  0  0  0  0  0  0  0  0
   -2.2682   -2.0868   -1.2762 C   0  0  0  0  0  0  0  0  0  0  0  0
   -3.6005   -2.0466   -0.8670 C   0  0  0  0  0  0  0  0  0  0  0  0
   -4.1670   -0.7879   -0.5942 C   0  0  0  0  0  0  0  0  0  0  0  0
   -3.3976    0.3885   -0.7333 C   0  0  0  0  0  0  0  0  0  0  0  0
   -1.9922   -1.3407    1.7542 H   0  0  0  0  0  0  0  0  0  0  0  0
    1.5500   -1.0718    2.1887 H   0  0  0  0  0  0  0  0  0  0  0  0
    1.3694    0.1236    3.5118 H   0  0  0  0  0  0  0  0  0  0  0  0
    1.3641    2.0018    1.9225 H   0  0  0  0  0  0  0  0  0  0  0  0
    4.9898    1.7010    0.6757 H   0  0  0  0  0  0  0  0  0  0  0  0
    0.7277    1.6184   -0.2599 H   0  0  0  0  0  0  0  0  0  0  0  0
    0.6706    0.5017   -2.4099 H   0  0  0  0  0  0  0  0  0  0  0  0
    1.6625   -0.9641   -2.6852 H   0  0  0  0  0  0  0  0  0  0  0  0
    0.5358   -3.3742   -2.1098 H   0  0  0  0  0  0  0  0  0  0  0  0
   -1.8443   -4.1754   -1.5128 H   0  0  0  0  0  0  0  0  0  0  0  0
   -1.4628    1.2155   -1.2556 H   0  0  0  0  0  0  0  0  0  0  0  0
   -4.1794   -2.9543   -0.7551 H   0  0  0  0  0  0  0  0  0  0  0  0
   -5.1979   -0.7212   -0.2722 H   0  0  0  0  0  0  0  0  0  0  0  0
   -3.8430    1.3514   -0.5188 H   0  0  0  0  0  0  0  0  0  0  0  0
  1  2  1  0
  2  3  2  0
  2  4  1  0
  5  4  1  0
  5  6  1  0
  6  7  2  0
  6  8  1  0
  5  9  1  0
  9 10  1  0
 10 11  2  0
 10 12  1  0
 12 13  1  0
 13 14  2  0
 14 15  1  0
 13 16  1  0
 16 17  2  0
 15 18  1  0
 16 18  1  0
 18 19  2  0
 19 20  1  0
 17 21  1  0
 20 21  2  0
  1 22  1  0
  4 23  1  0
  4 24  1  0
  5 25  1  1
  8 26  1  0
  9 27  1  0
 12 28  1  0
 12 29  1  0
 14 30  1  0
 15 31  1  0
 17 32  1  0
 19 33  1  0
 20 34  1  0
 21 35  1  0
M  END
