@<TRIPOS>MOLECULE
1V0P_PVB_A_1287
 55 57 0 0 0
SMALL
GASTEIGER

@<TRIPOS>ATOM
      1 N          -1.4157   -1.0176   -0.4507 N.ar    1  UNL1       -0.1971
      2 C           3.5736   -1.8682   -1.4250 C.3     1  UNL1        0.0317
      3 N           2.5188   -0.8596   -1.2732 N.ar    1  UNL1       -0.3123
      4 C           1.2289   -1.0564   -0.9720 C.ar    1  UNL1        0.1675
      5 N           0.5842   -2.2398   -0.8313 N.ar    1  UNL1       -0.1947
      6 C          -0.7576   -2.2181   -0.5687 C.ar    0  ACE0        0.2192
      7 C          -0.7651    0.1773   -0.5732 C.ar    1  UNL1        0.1558
      8 C           0.5991    0.1357   -0.8621 C.ar    1  UNL1        0.1479
      9 N           1.4596    1.1445   -1.1004 N.ar    1  UNL1       -0.2306
     10 C           2.6312    0.4944   -1.3381 C.ar    1  UNL1        0.0986
     11 N          -1.5005    1.4058   -0.4724 N.pl3   1  UNL1       -0.2975
     12 C          -0.9803    2.6192    0.0983 C.ar    1  UNL1        0.0338
     13 C          -0.0392    2.5907    1.1372 C.ar    1  UNL1       -0.0396
     14 C           0.4434    3.7802    1.6865 C.ar    1  UNL1       -0.0446
     15 C          -0.0185    5.0291    1.2292 C.ar    1  UNL1        0.0772
     16 C          -0.9908    5.0551    0.1962 C.ar    1  UNL1        0.0567
     17 CL         -1.6331    6.5490   -0.4852 Cl      1  UNL1       -0.0826
     18 C          -1.4642    3.8536   -0.3493 C.ar    1  UNL1       -0.0214
     19 C           0.5338    6.2606    1.8546 C.2     1  UNL1        0.3382
     20 O           1.6664    6.1811    2.6626 O.3     1  UNL1       -0.4771
     21 O          -0.0124    7.3828    1.6831 O.2     1  UNL1       -0.2451
     22 N          -1.4655   -3.4569   -0.4231 N.pl3   1  UNL1       -0.3081
     23 CA         -2.8599   -3.5428    0.0301 C.3     1  UNL1        0.0487
     24 CB         -2.9382   -3.8892    1.5448 C.3     1  UNL1       -0.0261
     25 CG1        -2.2307   -5.2063    1.9072 C.3     1  UNL1       -0.0609
     26 CG2        -2.3810   -2.7433    2.4024 C.3     1  UNL1       -0.0609
     27 C          -3.6300   -4.5537   -0.8395 C.3     1  UNL1        0.0628
     28 O          -3.7851   -4.0540   -2.1407 O.3     1  UNL1       -0.3932
     29 C           4.3010   -1.6915   -2.7625 C.3     1  UNL1       -0.0444
     30 C           4.5538   -1.7848   -0.2513 C.3     1  UNL1       -0.0444
     31 H           3.1172   -2.8834   -1.4197 H       1  UNL1        0.0523
     32 H           3.5576    1.0111   -1.5536 H       1  UNL1        0.1029
     33 H          -2.4926    1.4018   -0.8026 H       1  UNL1        0.1536
     34 H           0.3156    1.6470    1.5317 H       1  UNL1        0.0636
     35 H           1.1722    3.7184    2.4853 H       1  UNL1        0.0627
     36 H          -2.2039    3.8803   -1.1410 H       1  UNL1        0.0651
     37 H           2.0533    7.0092    3.1008 H       1  UNL1        0.2954
     38 H          -0.9274   -4.3435   -0.5559 H       1  UNL1        0.1493
     39 HA         -3.3678   -2.5634   -0.1166 H       1  UNL1        0.0523
     40 HB         -4.0111   -4.0010    1.8166 H       1  UNL1        0.0314
     41 HG11       -2.3555   -5.4156    2.9917 H       1  UNL1        0.0233
     42 HG12       -2.6713   -6.0595    1.3527 H       1  UNL1        0.0233
     43 HG13       -1.1421   -5.1522    1.6876 H       1  UNL1        0.0233
     44 HG21       -1.2922   -2.6110    2.2264 H       1  UNL1        0.0233
     45 HG22       -2.9045   -1.7914    2.1638 H       1  UNL1        0.0233
     46 HG23       -2.5398   -2.9608    3.4823 H       1  UNL1        0.0233
     47 H1         -4.6428   -4.7167   -0.4127 H       1  UNL1        0.0576
     48 H2         -3.1128   -5.5400   -0.8642 H       1  UNL1        0.0576
     49 H          -2.9452   -4.2576   -2.6307 H       1  UNL1        0.2095
     50 H           3.5668   -1.6890   -3.5974 H       1  UNL1        0.0249
     51 H           4.8701   -0.7359   -2.7797 H       1  UNL1        0.0249
     52 H           5.0130   -2.5299   -2.9202 H       1  UNL1        0.0249
     53 H           5.3250   -2.5798   -0.3386 H       1  UNL1        0.0249
     54 H           4.0071   -1.9291    0.7063 H       1  UNL1        0.0249
     55 H           5.0587   -0.7952   -0.2321 H       1  UNL1        0.0249
@<TRIPOS>BOND
     1     2     3    1
     2     3     4   ar
     3     4     5   ar
     4     1     6   ar
     5     5     6   ar
     6     1     7   ar
     7     4     8   ar
     8     7     8   ar
     9     8     9   ar
    10     3    10   ar
    11     9    10   ar
    12     7    11    1
    13    11    12    1
    14    12    13   ar
    15    13    14   ar
    16    14    15   ar
    17    15    16   ar
    18    16    17    1
    19    12    18   ar
    20    16    18   ar
    21    15    19    1
    22    19    20    1
    23    19    21    2
    24     6    22    1
    25    22    23    1
    26    23    24    1
    27    24    25    1
    28    24    26    1
    29    23    27    1
    30    27    28    1
    31     2    29    1
    32     2    30    1
    33     2    31    1
    34    10    32    1
    35    11    33    1
    36    13    34    1
    37    14    35    1
    38    18    36    1
    39    20    37    1
    40    22    38    1
    41    23    39    1
    42    24    40    1
    43    25    41    1
    44    25    42    1
    45    25    43    1
    46    26    44    1
    47    26    45    1
    48    26    46    1
    49    27    47    1
    50    27    48    1
    51    28    49    1
    52    29    50    1
    53    29    51    1
    54    29    52    1
    55    30    53    1
    56    30    54    1
    57    30    55    1
