7ROU_66I_A_401
     RDKit          3D

 39 42  0  0  0  0  0  0  0  0999 V2000
   64.5305   14.9257   45.3834 C   0  0  1  0  0  0  0  0  0  0  0  0
   65.3280   13.3932   43.6702 C   0  0  0  0  0  0  0  0  0  0  0  0
   65.7155   12.2085   43.0514 C   0  0  0  0  0  0  0  0  0  0  0  0
   66.1996   12.1681   41.7649 C   0  0  0  0  0  0  0  0  0  0  0  0
   66.3066   13.3465   41.0568 C   0  0  0  0  0  0  0  0  0  0  0  0
   64.8097   13.4538   45.0486 C   0  0  0  0  0  0  0  0  0  0  0  0
   65.9204   14.4989   41.6843 C   0  0  0  0  0  0  0  0  0  0  0  0
   65.4374   14.5823   42.9524 C   0  0  0  0  0  0  0  0  0  0  0  0
   55.1564   19.1960   46.4751 C   0  0  2  0  0  0  0  0  0  0  0  0
   63.0900   15.1435   45.0730 C   0  0  0  0  0  0  0  0  0  0  0  0
   60.7164   20.3599   45.4883 C   0  0  2  0  0  0  0  0  0  0  0  0
   61.8491   19.3900   43.8751 C   0  0  2  0  0  0  0  0  0  0  0  0
   61.9897   18.2448   42.9263 C   0  0  0  0  0  0  0  0  0  0  0  0
   57.4667   22.5104   48.2189 C   0  0  0  0  0  0  0  0  0  0  0  0
   59.5256   23.6589   48.1621 C   0  0  0  0  0  0  0  0  0  0  0  0
   59.2402   21.6630   46.9460 C   0  0  0  0  0  0  0  0  0  0  0  0
   57.9350   21.5295   47.3783 C   0  0  0  0  0  0  0  0  0  0  0  0
   57.3689   20.3720   46.8325 C   0  0  0  0  0  0  0  0  0  0  0  0
   62.6371   19.0872   45.1195 C   0  0  2  0  0  0  0  0  0  0  0  0
   61.6057   19.3784   46.2201 C   0  0  1  0  0  0  0  0  0  0  0  0
   54.6373   18.2054   47.3639 F   0  0  0  0  0  0  0  0  0  0  0  0
   55.5409   18.4140   45.3414 F   0  0  0  0  0  0  0  0  0  0  0  0
   56.1503   22.4672   48.7152 N   0  0  0  0  0  0  0  0  0  0  0  0
   58.2556   23.5336   48.5858 N   0  0  0  0  0  0  0  0  0  0  0  0
   60.0078   22.6992   47.3300 N   0  0  0  0  0  0  0  0  0  0  0  0
   58.4052   19.8679   46.0823 N   0  0  0  0  0  0  0  0  0  0  0  0
   59.4613   20.6068   46.1533 N   0  0  0  0  0  0  0  0  0  0  0  0
   62.7768   15.5168   43.7337 N   0  0  0  0  0  0  0  0  0  0  0  0
   64.8008   15.1010   46.7939 N   0  0  0  0  0  0  0  0  0  0  0  0
   56.2064   19.8238   46.9312 O   0  0  0  0  0  0  0  0  0  0  0  0
   60.5489   19.6626   44.2714 O   0  0  0  0  0  0  0  0  0  0  0  0
   60.8868   17.4359   42.8527 O   0  0  0  0  0  0  0  0  0  0  0  0
   60.8549   15.0330   41.9413 O   0  0  0  0  0  0  0  0  0  0  0  0
   66.7897   13.3911   39.7416 O   0  0  0  0  0  0  0  0  0  0  0  0
   62.2201   14.9975   45.9685 O   0  0  0  0  0  0  0  0  0  0  0  0
   60.2325   15.3921   44.2612 O   0  0  0  0  0  0  0  0  0  0  0  0
   63.6522   20.0361   45.2104 O   0  0  0  0  0  0  0  0  0  0  0  0
   62.2157   19.9731   47.3288 O   0  0  0  0  0  0  0  0  0  0  0  0
   61.1938   15.8479   43.1783 S   0  0  1  0  0  0  0  0  0  0  0  0
  2  3  2  0
  3  4  1  0
  4  5  2  0
  2  6  1  0
  1  6  1  0
  5  7  1  0
  7  8  2  0
  2  8  1  0
  1 10  1  0
 12 13  1  6
 16 17  1  0
 14 17  2  0
 17 18  1  0
 12 19  1  0
 19 20  1  0
 11 20  1  0
  9 21  1  1
  9 22  1  0
 14 23  1  0
 15 24  2  0
 14 24  1  0
 16 25  2  0
 15 25  1  0
 18 26  2  0
 11 27  1  1
 26 27  1  0
 16 27  1  0
 10 28  1  0
  1 29  1  1
  9 30  1  0
 18 30  1  0
 12 31  1  0
 11 31  1  0
 13 32  1  0
  5 34  1  0
 10 35  2  0
 19 37  1  1
 20 38  1  1
 32 39  1  0
 33 39  2  0
 39 28  1  1
 36 39  2  0
M  END
$$$$
