7E4L_MDN_A_301
     RDKit          3D

 15 14  0  0  0  0  0  0  0  0999 V2000
   -4.9719    1.2676   -2.6451 O   0  0  0  0  0  0  0  0  0  0  0  0
   -3.6822    1.7051   -1.6402 P   0  0  2  0  0  5  0  0  0  0  0  0
   -3.7690    3.1846   -1.3377 O   0  0  0  0  0  0  0  0  0  0  0  0
   -2.2172    1.3851   -2.4250 O   0  0  0  0  0  0  0  0  0  0  0  0
   -3.7631    0.7763   -0.0779 C   0  0  0  0  0  0  0  0  0  0  0  0
   -2.0964    0.3445    0.5079 P   0  0  1  0  0  5  0  0  0  0  0  0
   -1.1869    0.0895   -0.6735 O   0  0  0  0  0  0  0  0  0  0  0  0
   -1.4626    1.6044    1.4419 O   0  0  0  0  0  0  0  0  0  0  0  0
   -2.1953   -1.0559    1.4531 O   0  0  0  0  0  0  0  0  0  0  0  0
   -5.7842    1.4513   -2.1090 H   0  0  0  0  0  0  0  0  0  0  0  0
   -2.4034    0.6073   -3.0093 H   0  0  0  0  0  0  0  0  0  0  0  0
   -4.2690    1.3963    0.6894 H   0  0  0  0  0  0  0  0  0  0  0  0
   -4.3472   -0.1552   -0.2360 H   0  0  0  0  0  0  0  0  0  0  0  0
   -2.0979    1.7020    2.1960 H   0  0  0  0  0  0  0  0  0  0  0  0
   -1.2788   -1.1873    1.8046 H   0  0  0  0  0  0  0  0  0  0  0  0
  2  1  1  6
  2  3  2  0
  2  4  1  0
  2  5  1  0
  5  6  1  0
  6  7  2  0
  6  8  1  1
  6  9  1  0
  1 10  1  0
  4 11  1  0
  5 12  1  0
  5 13  1  0
  8 14  1  0
  9 15  1  0
M  END
