7ODY_DGI_D_201
     RDKit          3D

 42 44  0  0  0  0  0  0  0  0999 V2000
    1.5274   -3.5228  -10.9125 O   0  0  0  0  0  0  0  0  0  0  0  0
    2.9121   -4.0693  -11.1764 P   0  0  1  0  0  5  0  0  0  0  0  0
    3.1322   -4.2007  -12.8488 O   0  0  0  0  0  0  0  0  0  0  0  0
    4.0477   -2.9942  -10.5316 O   0  0  0  0  0  0  0  0  0  0  0  0
    3.0451   -5.5888  -10.4234 O   0  0  0  0  0  0  0  0  0  0  0  0
    1.5022   -6.0301   -9.8527 P   0  0  2  0  0  5  0  0  0  0  0  0
    1.6359   -6.9861   -8.6882 O   0  0  0  0  0  0  0  0  0  0  0  0
    0.6969   -6.8249  -11.1128 O   0  0  0  0  0  0  0  0  0  0  0  0
    0.6180   -4.6517   -9.3686 O   0  0  0  0  0  0  0  0  0  0  0  0
   -0.2903   -5.0310   -8.3588 C   0  0  0  0  0  0  0  0  0  0  0  0
   -0.4014   -3.9225   -7.3010 C   0  0  1  0  0  0  0  0  0  0  0  0
   -1.1415   -2.8430   -7.8295 O   0  0  0  0  0  0  0  0  0  0  0  0
   -1.0681   -4.4104   -6.0092 C   0  0  1  0  0  0  0  0  0  0  0  0
   -0.4126   -3.9057   -4.8690 O   0  0  0  0  0  0  0  0  0  0  0  0
   -2.4670   -3.8684   -6.1177 C   0  0  0  0  0  0  0  0  0  0  0  0
   -2.3076   -2.6762   -7.0505 C   0  0  2  0  0  0  0  0  0  0  0  0
   -3.4883   -2.5201   -7.9075 N   0  0  0  0  0  4  0  0  0  0  0  0
   -4.7360   -2.1538   -7.5130 C   0  0  0  0  0  0  0  0  0  0  0  0
   -5.6254   -2.0612   -8.5399 N   0  0  0  0  0  0  0  0  0  0  0  0
   -4.8757   -2.3846   -9.6098 C   0  0  0  0  0  0  0  0  0  0  0  0
   -3.6056   -2.6564   -9.2373 C   0  0  0  0  0  0  0  0  0  0  0  0
   -2.6420   -2.9885  -10.1302 N   0  0  0  0  0  0  0  0  0  0  0  0
   -2.9788   -3.0515  -11.4547 C   0  0  0  0  0  0  0  0  0  0  0  0
   -1.9861   -3.4050  -12.4167 N   0  0  0  0  0  0  0  0  0  0  0  0
   -4.2674   -2.7828  -11.8565 N   0  0  0  0  0  4  0  0  0  0  0  0
   -5.2337   -2.4453  -10.9488 C   0  0  0  0  0  0  0  0  0  0  0  0
   -6.4114   -2.1950  -11.3212 O   0  0  0  0  0  0  0  0  0  0  0  0
    2.4384   -4.8421  -13.1472 H   0  0  0  0  0  0  0  0  0  0  0  0
    3.9415   -2.1652  -11.0625 H   0  0  0  0  0  0  0  0  0  0  0  0
    0.7226   -6.1864  -11.8694 H   0  0  0  0  0  0  0  0  0  0  0  0
    0.0481   -5.9608   -7.8460 H   0  0  0  0  0  0  0  0  0  0  0  0
   -1.3034   -5.1992   -8.7880 H   0  0  0  0  0  0  0  0  0  0  0  0
    0.6299   -3.5661   -7.0809 H   0  0  0  0  0  0  0  0  0  0  0  0
   -1.0860   -5.5204   -5.9369 H   0  0  0  0  0  0  0  0  0  0  0  0
   -0.3902   -2.9150   -4.9359 H   0  0  0  0  0  0  0  0  0  0  0  0
   -3.1288   -4.6382   -6.5716 H   0  0  0  0  0  0  0  0  0  0  0  0
   -2.8834   -3.5680   -5.1317 H   0  0  0  0  0  0  0  0  0  0  0  0
   -2.1844   -1.7528   -6.4422 H   0  0  0  0  0  0  0  0  0  0  0  0
   -5.0008   -1.9503   -6.4840 H   0  0  0  0  0  0  0  0  0  0  0  0
   -1.0080   -3.6097  -12.1142 H   0  0  0  0  0  0  0  0  0  0  0  0
   -2.2259   -3.4719  -13.4304 H   0  0  0  0  0  0  0  0  0  0  0  0
   -4.5142   -2.8351  -12.8712 H   0  0  0  0  0  0  0  0  0  0  0  0
  1  2  2  0
  2  3  1  6
  2  4  1  0
  2  5  1  0
  6  5  1  6
  6  7  2  0
  6  8  1  0
  6  9  1  0
  9 10  1  0
 11 10  1  0
 11 12  1  0
 11 13  1  0
 13 14  1  0
 13 15  1  0
 12 16  1  0
 15 16  1  0
 16 17  1  0
 17 18  4  0
 18 19  4  0
 19 20  4  0
 17 21  4  0
 20 21  4  0
 21 22  4  0
 22 23  4  0
 23 24  1  0
 23 25  4  0
 20 26  4  0
 25 26  4  0
 26 27  2  0
  3 28  1  0
  4 29  1  0
  8 30  1  0
 10 31  1  0
 10 32  1  0
 11 33  1  1
 13 34  1  1
 14 35  1  0
 15 36  1  0
 15 37  1  0
 16 38  1  1
 18 39  1  0
 24 40  1  0
 24 41  1  0
 25 42  1  0
M  CHG  2  17   1  25   1
M  END
