7ZF0_DHR_A_508
     RDKit          3D

 18 18  0  0  0  0  0  0  0  0999 V2000
   33.6382   60.6315   45.3602 N   0  0  0  0  0  0  0  0  0  0  0  0
   33.0073   59.8790   45.9387 C   0  0  0  0  0  0  0  0  0  0  0  0
   33.1102   58.0859   47.6238 C   0  0  0  0  0  0  0  0  0  0  0  0
   34.4167   57.9098   47.2358 C   0  0  0  0  0  0  0  0  0  0  0  0
   32.6741   57.5798   48.8377 C   0  0  0  0  0  0  0  0  0  0  0  0
   33.5285   56.9102   49.6779 C   0  0  0  0  0  0  0  0  0  0  0  0
   35.2674   57.2391   48.0629 C   0  0  0  0  0  0  0  0  0  0  0  0
   34.8533   56.7398   49.2895 C   0  0  0  0  0  0  0  0  0  0  0  0
   35.7333   56.0651   50.1088 O   0  0  0  0  0  0  0  0  0  0  0  0
   32.1698   58.8363   46.6901 C   0  0  2  0  0  0  0  0  0  0  0  0
   31.5354   58.0015   45.7427 O   0  0  0  0  0  0  0  0  0  0  0  0
   34.7488   58.2798   46.3315 H   0  0  0  0  0  0  0  0  0  0  0  0
   31.6886   57.7087   49.1154 H   0  0  0  0  0  0  0  0  0  0  0  0
   33.1940   56.5400   50.5813 H   0  0  0  0  0  0  0  0  0  0  0  0
   36.2466   57.0988   47.7688 H   0  0  0  0  0  0  0  0  0  0  0  0
   35.4428   55.7322   50.9351 H   0  0  0  0  0  0  0  0  0  0  0  0
   31.3947   59.2742   47.2836 H   0  0  0  0  0  0  0  0  0  0  0  0
   32.2058   57.5823   45.1808 H   0  0  0  0  0  0  0  0  0  0  0  0
  1  2  3  0
  3  4  4  0
  3  5  4  0
  5  6  4  0
  4  7  4  0
  6  8  4  0
  7  8  4  0
  8  9  1  0
  2 10  1  0
  3 10  1  0
 10 11  1  0
  4 12  1  0
  5 13  1  0
  6 14  1  0
  7 15  1  0
  9 16  1  0
 10 17  1  1
 11 18  1  0
M  END
