1N46_PFA_A_462
     RDKit          3D

 48 50  0  0  0  0  0  0  0  0999 V2000
   -0.1691    4.3072    6.1428 O   0  0  0  0  0  0  0  0  0  0  0  0
   -0.9949    3.4498    6.5614 C   0  0  0  0  0  0  0  0  0  0  0  0
   -1.3722    3.4673    7.8684 N   0  0  0  0  0  4  0  0  0  0  0  0
   -2.2285    2.5317    8.3528 C   0  0  0  0  0  0  0  0  0  0  0  0
   -2.5732    2.5507    9.5645 O   0  0  0  0  0  0  0  0  0  0  0  0
   -1.4977    2.4883    5.7218 N   0  0  0  0  0  4  0  0  0  0  0  0
   -2.3313    1.5599    6.2006 N   0  0  0  0  0  0  0  0  0  0  0  0
   -2.7183    1.5492    7.4999 C   0  0  0  0  0  0  0  0  0  0  0  0
   -1.1392    2.4297    4.3280 C   0  0  0  0  0  0  0  0  0  0  0  0
   -1.8553    1.5966    3.4577 C   0  0  0  0  0  0  0  0  0  0  0  0
   -1.5393    1.5457    2.0921 C   0  0  0  0  0  0  0  0  0  0  0  0
   -2.3373    0.6697    1.1676 C   0  0  0  0  0  0  0  0  0  0  0  0
   -0.1089    3.2337    3.8164 C   0  0  0  0  0  0  0  0  0  0  0  0
    0.2274    3.1898    2.4553 C   0  0  0  0  0  0  0  0  0  0  0  0
    1.3486    4.0547    1.9479 C   0  0  0  0  0  0  0  0  0  0  0  0
   -0.5159    2.3652    1.5819 C   0  0  0  0  0  0  0  0  0  0  0  0
   -0.2395    2.3368    0.2079 O   0  0  0  0  0  0  0  0  0  0  0  0
    0.2159    1.2034   -0.4821 C   0  0  0  0  0  0  0  0  0  0  0  0
    1.5912    1.0286   -0.6411 C   0  0  0  0  0  0  0  0  0  0  0  0
   -0.6663    0.2365   -0.9970 C   0  0  0  0  0  0  0  0  0  0  0  0
   -0.1828   -0.8897   -1.6904 C   0  0  0  0  0  0  0  0  0  0  0  0
   -1.1823   -1.8980   -2.2415 C   0  0  1  0  0  0  0  0  0  0  0  0
   -2.4761   -1.9240   -1.4183 C   0  0  0  0  0  0  0  0  0  0  0  0
   -1.4654   -1.6657   -3.7309 C   0  0  0  0  0  0  0  0  0  0  0  0
    1.2146   -1.0417   -1.8520 C   0  0  0  0  0  0  0  0  0  0  0  0
    2.0880   -0.0820   -1.3222 C   0  0  0  0  0  0  0  0  0  0  0  0
    1.7387   -2.1391   -2.5336 O   0  0  0  0  0  0  0  0  0  0  0  0
   -0.9923    4.2022    8.5083 H   0  0  0  0  0  0  0  0  0  0  0  0
   -3.3977    0.7863    7.8575 H   0  0  0  0  0  0  0  0  0  0  0  0
   -2.6579    0.9838    3.8502 H   0  0  0  0  0  0  0  0  0  0  0  0
   -1.6546    0.0700    0.5292 H   0  0  0  0  0  0  0  0  0  0  0  0
   -2.9787    1.3032    0.5195 H   0  0  0  0  0  0  0  0  0  0  0  0
   -2.9859   -0.0341    1.7315 H   0  0  0  0  0  0  0  0  0  0  0  0
    0.4251    3.9041    4.4788 H   0  0  0  0  0  0  0  0  0  0  0  0
    1.8809    3.5594    1.1089 H   0  0  0  0  0  0  0  0  0  0  0  0
    2.0941    4.2443    2.7494 H   0  0  0  0  0  0  0  0  0  0  0  0
    0.9426    5.0282    1.6029 H   0  0  0  0  0  0  0  0  0  0  0  0
    2.2790    1.7624   -0.2401 H   0  0  0  0  0  0  0  0  0  0  0  0
   -1.7322    0.3593   -0.8548 H   0  0  0  0  0  0  0  0  0  0  0  0
   -0.7470   -2.9198   -2.1654 H   0  0  0  0  0  0  0  0  0  0  0  0
   -3.0534   -0.9839   -1.5327 H   0  0  0  0  0  0  0  0  0  0  0  0
   -3.1183   -2.7671   -1.7514 H   0  0  0  0  0  0  0  0  0  0  0  0
   -2.2400   -2.0730   -0.3429 H   0  0  0  0  0  0  0  0  0  0  0  0
   -2.0717   -2.5046   -4.1347 H   0  0  0  0  0  0  0  0  0  0  0  0
   -0.5109   -1.6247   -4.2981 H   0  0  0  0  0  0  0  0  0  0  0  0
   -2.0250   -0.7234   -3.8999 H   0  0  0  0  0  0  0  0  0  0  0  0
    3.1580   -0.1963   -1.4405 H   0  0  0  0  0  0  0  0  0  0  0  0
    2.7368   -2.2631   -2.6574 H   0  0  0  0  0  0  0  0  0  0  0  0
  1  2  2  0
  2  3  4  0
  3  4  4  0
  4  5  2  0
  2  6  4  0
  6  7  4  0
  4  8  4  0
  7  8  4  0
  6  9  1  0
  9 10  4  0
 10 11  4  0
 11 12  1  0
  9 13  4  0
 13 14  4  0
 14 15  1  0
 11 16  4  0
 14 16  4  0
 16 17  1  0
 17 18  1  0
 18 19  4  0
 18 20  4  0
 20 21  4  0
 21 22  1  0
 22 23  1  0
 22 24  1  0
 21 25  4  0
 19 26  4  0
 25 26  4  0
 25 27  1  0
  3 28  1  0
  8 29  1  0
 10 30  1  0
 12 31  1  0
 12 32  1  0
 12 33  1  0
 13 34  1  0
 15 35  1  0
 15 36  1  0
 15 37  1  0
 19 38  1  0
 20 39  1  0
 22 40  1  6
 23 41  1  0
 23 42  1  0
 23 43  1  0
 24 44  1  0
 24 45  1  0
 24 46  1  0
 26 47  1  0
 27 48  1  0
M  CHG  2   3   1   6   1
M  END
