1IA1_TQ3_B_196
     RDKit          3D

 19 21  0  0  0  0  0  0  0  0999 V2000
   12.2503   41.8790   22.0981 C   0  0  0  0  0  0  0  0  0  0  0  0
   12.8476   40.6993   21.7049 C   0  0  0  0  0  0  0  0  0  0  0  0
   13.2697   39.7913   22.6303 C   0  0  0  0  0  0  0  0  0  0  0  0
   13.0814   40.0953   23.9316 N   0  0  0  0  0  0  0  0  0  0  0  0
   12.4981   41.2508   24.2981 C   0  0  0  0  0  0  0  0  0  0  0  0
   12.0769   42.1524   23.3989 N   0  0  0  0  0  0  0  0  0  0  0  0
   13.8645   38.5391   22.3462 N   0  0  0  0  0  0  0  0  0  0  0  0
   11.7909   42.8216   21.1966 C   0  0  0  0  0  0  0  0  0  0  0  0
   11.9508   42.5429   19.8463 C   0  0  0  0  0  0  0  0  0  0  0  0
   12.5518   41.3585   19.4701 C   0  0  0  0  0  0  0  0  0  0  0  0
   13.0076   40.4253   20.3712 C   0  0  0  0  0  0  0  0  0  0  0  0
   12.3475   41.4729   25.7112 N   0  0  0  0  0  0  0  0  0  0  0  0
   13.7614   38.9489   19.7272 S   0  0  0  0  0  0  0  0  0  0  0  0
   13.2162   38.5583   18.0944 C   0  0  0  0  0  0  0  0  0  0  0  0
   12.4983   37.4527   17.7263 C   0  0  0  0  0  0  0  0  0  0  0  0
   12.1197   37.2362   16.4085 C   0  0  0  0  0  0  0  0  0  0  0  0
   12.4494   38.1270   15.4049 C   0  0  0  0  0  0  0  0  0  0  0  0
   13.1745   39.2471   15.7668 C   0  0  0  0  0  0  0  0  0  0  0  0
   13.5434   39.4491   17.0778 C   0  0  0  0  0  0  0  0  0  0  0  0
  1  2  1  0
  2  3  2  0
  3  4  1  0
  4  5  2  0
  1  6  2  0
  5  6  1  0
  3  7  1  0
  1  8  1  0
  8  9  2  0
  9 10  1  0
  2 11  1  0
 10 11  2  0
  5 12  1  0
 11 13  1  0
 13 14  1  0
 14 15  2  0
 15 16  1  0
 16 17  2  0
 17 18  1  0
 14 19  1  0
 18 19  2  0
M  END
$$$$
