1IA1_TQ3_B_196
     RDKit          3D

 19 21  0  0  0  0  0  0  0  0999 V2000
    8.2999   34.9736   18.0768 C   0  0  0  0  0  0  0  0  0  0  0  0
    8.4748   36.2249   18.6307 C   0  0  0  0  0  0  0  0  0  0  0  0
    7.4451   36.8548   19.2648 C   0  0  0  0  0  0  0  0  0  0  0  0
    6.2617   36.2087   19.3237 N   0  0  0  0  0  0  0  0  0  0  0  0
    6.1078   34.9890   18.7773 C   0  0  0  0  0  0  0  0  0  0  0  0
    7.1120   34.3571   18.1518 N   0  0  0  0  0  0  0  0  0  0  0  0
    7.5145   38.1198   19.8953 N   0  0  0  0  0  0  0  0  0  0  0  0
    9.3183   34.2887   17.4397 C   0  0  0  0  0  0  0  0  0  0  0  0
   10.5574   34.9102   17.3690 C   0  0  0  0  0  0  0  0  0  0  0  0
   10.7147   36.1630   17.9272 C   0  0  0  0  0  0  0  0  0  0  0  0
    9.6980   36.8397   18.5588 C   0  0  0  0  0  0  0  0  0  0  0  0
    4.8047   34.3924   18.8979 N   0  0  0  0  0  0  0  0  0  0  0  0
   10.0603   38.4480   19.2254 S   0  0  0  0  0  0  0  0  0  0  0  0
   11.7540   38.6318   19.6875 C   0  0  0  0  0  0  0  0  0  0  0  0
   12.4696   39.7986   19.6830 C   0  0  0  0  0  0  0  0  0  0  0  0
   13.8039   39.8356   20.0637 C   0  0  0  0  0  0  0  0  0  0  0  0
   14.4739   38.6958   20.4656 C   0  0  0  0  0  0  0  0  0  0  0  0
   13.7595   37.5122   20.4736 C   0  0  0  0  0  0  0  0  0  0  0  0
   12.4364   37.4902   20.0934 C   0  0  0  0  0  0  0  0  0  0  0  0
  1  2  1  0
  2  3  2  0
  3  4  1  0
  4  5  2  0
  1  6  2  0
  5  6  1  0
  3  7  1  0
  1  8  1  0
  8  9  2  0
  9 10  1  0
  2 11  1  0
 10 11  2  0
  5 12  1  0
 11 13  1  0
 13 14  1  0
 14 15  2  0
 15 16  1  0
 16 17  2  0
 17 18  1  0
 14 19  1  0
 18 19  2  0
M  END
$$$$
