1IA1_TQ3_B_196
     RDKit          3D

 19 21  0  0  0  0  0  0  0  0999 V2000
   13.2480   41.9462   20.2482 C   0  0  0  0  0  0  0  0  0  0  0  0
   13.5019   41.4883   18.9718 C   0  0  0  0  0  0  0  0  0  0  0  0
   13.1882   42.2494   17.8848 C   0  0  0  0  0  0  0  0  0  0  0  0
   12.6234   43.4541   18.1104 N   0  0  0  0  0  0  0  0  0  0  0  0
   12.3817   43.8851   19.3616 C   0  0  0  0  0  0  0  0  0  0  0  0
   12.6861   43.1480   20.4399 N   0  0  0  0  0  0  0  0  0  0  0  0
   13.4295   41.8994   16.5351 N   0  0  0  0  0  0  0  0  0  0  0  0
   13.5642   41.2182   21.3806 C   0  0  0  0  0  0  0  0  0  0  0  0
   14.1607   39.9787   21.1955 C   0  0  0  0  0  0  0  0  0  0  0  0
   14.4064   39.5351   19.9115 C   0  0  0  0  0  0  0  0  0  0  0  0
   14.0889   40.2630   18.7891 C   0  0  0  0  0  0  0  0  0  0  0  0
   11.7765   45.1840   19.4865 N   0  0  0  0  0  0  0  0  0  0  0  0
   14.4683   39.5518   17.2039 S   0  0  0  0  0  0  0  0  0  0  0  0
   13.8174   37.9223   17.0114 C   0  0  0  0  0  0  0  0  0  0  0  0
   13.6811   36.9857   18.0002 C   0  0  0  0  0  0  0  0  0  0  0  0
   13.1577   35.7262   17.7426 C   0  0  0  0  0  0  0  0  0  0  0  0
   12.7490   35.3574   16.4751 C   0  0  0  0  0  0  0  0  0  0  0  0
   12.8825   36.2967   15.4695 C   0  0  0  0  0  0  0  0  0  0  0  0
   13.4034   37.5423   15.7393 C   0  0  0  0  0  0  0  0  0  0  0  0
  1  2  1  0
  2  3  2  0
  3  4  1  0
  4  5  2  0
  1  6  2  0
  5  6  1  0
  3  7  1  0
  1  8  1  0
  8  9  2  0
  9 10  1  0
  2 11  1  0
 10 11  2  0
  5 12  1  0
 11 13  1  0
 13 14  1  0
 14 15  2  0
 15 16  1  0
 16 17  2  0
 17 18  1  0
 14 19  1  0
 18 19  2  0
M  END
$$$$
