1IA1_TQ3_B_196
     RDKit          3D

 19 21  0  0  0  0  0  0  0  0999 V2000
   29.4014   -2.7686   -0.2214 C   0  0  0  0  0  0  0  0  0  0  0  0
   29.3047   -2.8643    1.1514 C   0  0  0  0  0  0  0  0  0  0  0  0
   28.3453   -2.1735    1.8308 C   0  0  0  0  0  0  0  0  0  0  0  0
   27.5068   -1.4001    1.1097 N   0  0  0  0  0  0  0  0  0  0  0  0
   27.6155   -1.3171   -0.2286 C   0  0  0  0  0  0  0  0  0  0  0  0
   28.5533   -1.9919   -0.9100 N   0  0  0  0  0  0  0  0  0  0  0  0
   28.1308   -2.2177    3.2289 N   0  0  0  0  0  0  0  0  0  0  0  0
   30.3459   -3.4630   -0.9549 C   0  0  0  0  0  0  0  0  0  0  0  0
   31.2201   -4.2827   -0.2546 C   0  0  0  0  0  0  0  0  0  0  0  0
   31.1103   -4.3658    1.1190 C   0  0  0  0  0  0  0  0  0  0  0  0
   30.1697   -3.6721    1.8432 C   0  0  0  0  0  0  0  0  0  0  0  0
   26.6703   -0.4634   -0.8968 N   0  0  0  0  0  0  0  0  0  0  0  0
   30.1587   -3.8853    3.6086 S   0  0  0  0  0  0  0  0  0  0  0  0
   30.8678   -5.4196    4.1173 C   0  0  0  0  0  0  0  0  0  0  0  0
   31.9785   -6.0126    3.5804 C   0  0  0  0  0  0  0  0  0  0  0  0
   32.4553   -7.2276    4.0529 C   0  0  0  0  0  0  0  0  0  0  0  0
   31.8312   -7.8969    5.0884 C   0  0  0  0  0  0  0  0  0  0  0  0
   30.7084   -7.3058    5.6374 C   0  0  0  0  0  0  0  0  0  0  0  0
   30.2466   -6.1003    5.1588 C   0  0  0  0  0  0  0  0  0  0  0  0
  1  2  1  0
  2  3  2  0
  3  4  1  0
  4  5  2  0
  1  6  2  0
  5  6  1  0
  3  7  1  0
  1  8  1  0
  8  9  2  0
  9 10  1  0
  2 11  1  0
 10 11  2  0
  5 12  1  0
 11 13  1  0
 13 14  1  0
 14 15  2  0
 15 16  1  0
 16 17  2  0
 17 18  1  0
 14 19  1  0
 18 19  2  0
M  END
$$$$
