1IA1_TQ3_B_196
     RDKit          3D

 19 21  0  0  0  0  0  0  0  0999 V2000
   29.0137   -2.8566   -0.5105 C   0  0  0  0  0  0  0  0  0  0  0  0
   29.1808   -2.8833    0.8587 C   0  0  0  0  0  0  0  0  0  0  0  0
   28.4755   -2.0369    1.6619 C   0  0  0  0  0  0  0  0  0  0  0  0
   27.6192   -1.1813    1.0653 N   0  0  0  0  0  0  0  0  0  0  0  0
   27.4689   -1.1677   -0.2715 C   0  0  0  0  0  0  0  0  0  0  0  0
   28.1549   -1.9952   -1.0737 N   0  0  0  0  0  0  0  0  0  0  0  0
   28.5401   -1.9948    3.0750 N   0  0  0  0  0  0  0  0  0  0  0  0
   29.6933   -3.7066   -1.3637 C   0  0  0  0  0  0  0  0  0  0  0  0
   30.5740   -4.6138   -0.7912 C   0  0  0  0  0  0  0  0  0  0  0  0
   30.7304   -4.6261    0.5804 C   0  0  0  0  0  0  0  0  0  0  0  0
   30.0526   -3.7778    1.4237 C   0  0  0  0  0  0  0  0  0  0  0  0
   26.5300   -0.2155   -0.8013 N   0  0  0  0  0  0  0  0  0  0  0  0
   30.3659   -3.9172    3.1687 S   0  0  0  0  0  0  0  0  0  0  0  0
   32.0848   -4.0512    3.5469 C   0  0  0  0  0  0  0  0  0  0  0  0
   33.1194   -3.6064    2.7689 C   0  0  0  0  0  0  0  0  0  0  0  0
   34.4425   -3.7640    3.1576 C   0  0  0  0  0  0  0  0  0  0  0  0
   34.7788   -4.3775    4.3492 C   0  0  0  0  0  0  0  0  0  0  0  0
   33.7407   -4.8301    5.1423 C   0  0  0  0  0  0  0  0  0  0  0  0
   32.4328   -4.6672    4.7442 C   0  0  0  0  0  0  0  0  0  0  0  0
  1  2  1  0
  2  3  2  0
  3  4  1  0
  4  5  2  0
  1  6  2  0
  5  6  1  0
  3  7  1  0
  1  8  1  0
  8  9  2  0
  9 10  1  0
  2 11  1  0
 10 11  2  0
  5 12  1  0
 11 13  1  0
 13 14  1  0
 14 15  2  0
 15 16  1  0
 16 17  2  0
 17 18  1  0
 14 19  1  0
 18 19  2  0
M  END
$$$$
