1IA1_TQ3_B_196
     RDKit          3D

 19 21  0  0  0  0  0  0  0  0999 V2000
   28.4676   -2.0117    1.4792 C   0  0  0  0  0  0  0  0  0  0  0  0
   29.2807   -2.6709    0.5807 C   0  0  0  0  0  0  0  0  0  0  0  0
   29.0890   -2.5323   -0.7621 C   0  0  0  0  0  0  0  0  0  0  0  0
   28.0799   -1.7334   -1.1678 N   0  0  0  0  0  0  0  0  0  0  0  0
   27.2955   -1.0985   -0.2782 C   0  0  0  0  0  0  0  0  0  0  0  0
   27.4732   -1.2244    1.0453 N   0  0  0  0  0  0  0  0  0  0  0  0
   29.8759   -3.1317   -1.7742 N   0  0  0  0  0  0  0  0  0  0  0  0
   28.6340   -2.1075    2.8486 C   0  0  0  0  0  0  0  0  0  0  0  0
   29.6701   -2.9076    3.3102 C   0  0  0  0  0  0  0  0  0  0  0  0
   30.4735   -3.5613    2.3974 C   0  0  0  0  0  0  0  0  0  0  0  0
   30.3025   -3.4630    1.0367 C   0  0  0  0  0  0  0  0  0  0  0  0
   26.2500   -0.2725   -0.8201 N   0  0  0  0  0  0  0  0  0  0  0  0
   31.4205   -4.3693   -0.0078 S   0  0  0  0  0  0  0  0  0  0  0  0
   32.8615   -4.9221    0.8489 C   0  0  0  0  0  0  0  0  0  0  0  0
   33.5357   -4.2343    1.8214 C   0  0  0  0  0  0  0  0  0  0  0  0
   34.6655   -4.7590    2.4337 C   0  0  0  0  0  0  0  0  0  0  0  0
   35.1638   -6.0014    2.0907 C   0  0  0  0  0  0  0  0  0  0  0  0
   34.4895   -6.7041    1.1093 C   0  0  0  0  0  0  0  0  0  0  0  0
   33.3701   -6.1714    0.5103 C   0  0  0  0  0  0  0  0  0  0  0  0
  1  2  1  0
  2  3  2  0
  3  4  1  0
  4  5  2  0
  1  6  2  0
  5  6  1  0
  3  7  1  0
  1  8  1  0
  8  9  2  0
  9 10  1  0
  2 11  1  0
 10 11  2  0
  5 12  1  0
 11 13  1  0
 13 14  1  0
 14 15  2  0
 15 16  1  0
 16 17  2  0
 17 18  1  0
 14 19  1  0
 18 19  2  0
M  END
$$$$
