7UAS_MBU_B_401
     RDKit          3D

 40 45  0  0  0  0  0  0  0  0999 V2000
   -7.2276  -23.2016   -0.1093 C   0  0  0  0  0  0  0  0  0  0  0  0
   -4.4533  -21.5048   -0.1725 C   0  0  0  0  0  0  0  0  0  0  0  0
   -5.5224  -22.9662   -3.3711 C   0  0  0  0  0  0  0  0  0  0  0  0
  -10.4530  -27.9548    0.6342 C   0  0  2  0  0  0  0  0  0  0  0  0
   -9.0427  -30.7133   -3.1524 C   0  0  0  0  0  0  0  0  0  0  0  0
   -7.6815  -31.1480   -3.7014 C   0  0  0  0  0  0  0  0  0  0  0  0
   -5.2104  -29.6174    5.5068 C   0  0  0  0  0  0  0  0  0  0  0  0
   -3.8425  -29.6207    6.1579 C   0  0  0  0  0  0  0  0  0  0  0  0
   -0.1393  -28.9398    3.3001 C   0  0  0  0  0  0  0  0  0  0  0  0
   -1.7476  -26.7635    3.0252 C   0  0  0  0  0  0  0  0  0  0  0  0
   -4.9225  -28.8739    1.9678 C   0  0  0  0  0  0  0  0  0  0  0  0
   -3.6706  -28.0984    4.0978 C   0  0  1  0  0  0  0  0  0  0  0  0
   -5.1216  -26.5689    2.8669 C   0  0  0  0  0  0  0  0  0  0  0  0
   -6.0292  -26.2792    1.7517 C   0  0  0  0  0  0  0  0  0  0  0  0
   -6.6644  -27.3227    1.0744 C   0  0  0  0  0  0  0  0  0  0  0  0
   -6.4019  -28.7487    1.5461 C   0  0  0  0  0  0  0  0  0  0  0  0
   -7.5042  -27.0561   -0.0166 C   0  0  0  0  0  0  0  0  0  0  0  0
   -7.6883  -25.7032   -0.3716 C   0  0  0  0  0  0  0  0  0  0  0  0
   -7.0498  -24.6585    0.3080 C   0  0  0  0  0  0  0  0  0  0  0  0
   -6.2156  -24.9578    1.3762 C   0  0  0  0  0  0  0  0  0  0  0  0
   -5.1060  -22.1570   -1.3600 C   0  0  0  0  0  0  0  0  0  0  0  0
   -6.5893  -23.4273   -2.6935 C   0  0  0  0  0  0  0  0  0  0  0  0
   -9.5491  -28.5230   -0.4685 C   0  0  0  0  0  0  0  0  0  0  0  0
   -8.2351  -28.1050   -0.7401 C   0  0  0  0  0  0  0  0  0  0  0  0
   -7.8487  -28.8806   -1.8008 C   0  0  0  0  0  0  0  0  0  0  0  0
   -3.9696  -29.5079    4.6617 C   0  0  2  0  0  0  0  0  0  0  0  0
    0.3817  -27.7737    2.7315 C   0  0  0  0  0  0  0  0  0  0  0  0
   -2.2215  -27.9457    3.5950 C   0  0  0  0  0  0  0  0  0  0  0  0
   -0.4352  -26.6570    2.5869 C   0  0  0  0  0  0  0  0  0  0  0  0
    0.0746  -25.3666    1.9807 C   0  0  0  0  0  0  0  0  0  0  0  0
  -11.2293  -27.0218    0.0739 F   0  0  0  0  0  0  0  0  0  0  0  0
   -9.7563  -27.4301    1.6814 F   0  0  0  0  0  0  0  0  0  0  0  0
  -11.1917  -28.9404    1.1632 F   0  0  0  0  0  0  0  0  0  0  0  0
   -4.6084  -27.8321    2.9668 N   0  0  0  0  0  0  0  0  0  0  0  0
   -4.6491  -22.2122   -2.5397 N   0  0  0  0  0  0  0  0  0  0  0  0
   -6.2869  -23.0601   -1.2697 N   0  0  0  0  0  0  0  0  0  0  0  0
   -9.9354  -29.4678   -1.2929 N   0  0  0  0  0  0  0  0  0  0  0  0
   -8.8945  -29.6961   -2.1027 N   0  0  0  0  0  0  0  0  0  0  0  0
   -1.4163  -29.0083    3.7155 N   0  0  0  0  0  0  0  0  0  0  0  0
   -4.8129  -25.7232    3.7082 O   0  0  0  0  0  0  0  0  0  0  0  0
  5  6  1  0
  7  8  1  0
 13 14  1  0
 14 15  2  0
 11 16  1  0
 15 16  1  0
 15 17  1  0
 17 18  2  0
 18 19  1  0
  1 19  1  0
 14 20  1  0
 19 20  2  0
  2 21  1  0
  3 22  2  0
  4 23  1  0
 17 24  1  0
 23 24  1  0
 24 25  2  0
 26  8  1  1
  7 26  1  0
 12 26  1  0
  9 27  2  0
 12 28  1  0
 10 28  1  0
 27 29  1  0
 10 29  2  0
 29 30  1  0
  4 31  1  6
  4 32  1  0
  4 33  1  0
 12 34  1  6
 11 34  1  0
 13 34  1  0
 21 35  2  0
  3 35  1  0
  1 36  1  0
 21 36  1  0
 22 36  1  0
 23 37  2  0
 37 38  1  0
 25 38  1  0
  5 38  1  0
  9 39  1  0
 28 39  2  0
 13 40  2  0
M  END
