8GFD_ZHR_A_601
     RDKit          3D

 49 51  0  0  0  0  0  0  0  0999 V2000
  -31.3580  -61.5897  -23.9283 C   0  0  2  0  0  0  0  0  0  0  0  0
  -32.1837  -62.7945  -24.2413 C   0  0  0  0  0  0  0  0  0  0  0  0
  -31.9618  -63.4410  -25.3016 O   0  0  0  0  0  0  0  0  0  0  0  0
  -33.2491  -63.1803  -23.3607 N   0  0  0  0  0  0  0  0  0  0  0  0
  -33.5295  -64.5790  -23.0216 C   0  0  2  0  0  0  0  0  0  0  0  0
  -34.6529  -64.6379  -21.9675 C   0  0  1  0  0  0  0  0  0  0  0  0
  -35.8988  -64.6114  -22.6176 O   0  0  0  0  0  0  0  0  0  0  0  0
  -34.5189  -65.9130  -21.1297 C   0  0  2  0  0  0  0  0  0  0  0  0
  -35.5524  -65.9594  -20.1788 O   0  0  0  0  0  0  0  0  0  0  0  0
  -33.1364  -65.9140  -20.4191 C   0  0  1  0  0  0  0  0  0  0  0  0
  -32.6884  -67.3364  -20.0367 C   0  0  1  0  0  0  0  0  0  0  0  0
  -32.9715  -67.5946  -18.6879 O   0  0  0  0  0  0  0  0  0  0  0  0
  -32.1046  -65.2247  -21.1258 O   0  0  0  0  0  0  0  0  0  0  0  0
  -32.2287  -65.2862  -22.5382 C   0  0  1  0  0  0  0  0  0  0  0  0
  -32.1972  -66.6385  -22.9698 O   0  0  0  0  0  0  0  0  0  0  0  0
  -32.5416  -66.7575  -24.3393 C   0  0  2  0  0  0  0  0  0  0  0  0
  -33.4504  -65.5945  -24.7380 C   0  0  1  0  0  0  0  0  0  0  0  0
  -32.6804  -64.5673  -25.5252 C   0  0  0  0  0  0  0  0  0  0  0  0
  -32.7369  -63.1976  -25.1572 C   0  0  0  0  0  0  0  0  0  0  0  0
  -31.9333  -62.2454  -25.8098 C   0  0  0  0  0  0  0  0  0  0  0  0
  -31.0837  -62.6928  -26.8169 C   0  0  0  0  0  0  0  0  0  0  0  0
  -30.2437  -61.9856  -27.5314 O   0  0  0  0  0  0  0  0  0  0  0  0
  -29.6297  -62.8119  -28.3595 C   0  0  0  0  0  0  0  0  0  0  0  0
  -30.0886  -64.1124  -28.1775 C   0  0  0  0  0  0  0  0  0  0  0  0
  -31.0283  -64.0099  -27.1793 C   0  0  0  0  0  0  0  0  0  0  0  0
  -31.8108  -64.9800  -26.5598 C   0  0  0  0  0  0  0  0  0  0  0  0
  -30.8708  -61.7010  -22.9364 H   0  0  0  0  0  0  0  0  0  0  0  0
  -32.0007  -60.6851  -23.9082 H   0  0  0  0  0  0  0  0  0  0  0  0
  -30.5759  -61.4670  -24.7060 H   0  0  0  0  0  0  0  0  0  0  0  0
  -33.9333  -62.4491  -23.0577 H   0  0  0  0  0  0  0  0  0  0  0  0
  -33.8803  -65.1089  -23.9326 H   0  0  0  0  0  0  0  0  0  0  0  0
  -34.5610  -63.7563  -21.2875 H   0  0  0  0  0  0  0  0  0  0  0  0
  -36.5031  -64.0491  -22.0655 H   0  0  0  0  0  0  0  0  0  0  0  0
  -34.6029  -66.7870  -21.8161 H   0  0  0  0  0  0  0  0  0  0  0  0
  -35.4496  -66.8123  -19.6824 H   0  0  0  0  0  0  0  0  0  0  0  0
  -33.2671  -65.3593  -19.4638 H   0  0  0  0  0  0  0  0  0  0  0  0
  -33.2458  -68.0734  -20.6528 H   0  0  0  0  0  0  0  0  0  0  0  0
  -31.6065  -67.4928  -20.2450 H   0  0  0  0  0  0  0  0  0  0  0  0
  -32.5405  -68.4617  -18.4671 H   0  0  0  0  0  0  0  0  0  0  0  0
  -31.3457  -64.7321  -22.9388 H   0  0  0  0  0  0  0  0  0  0  0  0
  -33.0902  -67.7118  -24.4913 H   0  0  0  0  0  0  0  0  0  0  0  0
  -31.6573  -66.7556  -25.0202 H   0  0  0  0  0  0  0  0  0  0  0  0
  -34.2932  -65.9806  -25.3517 H   0  0  0  0  0  0  0  0  0  0  0  0
  -33.8892  -65.1370  -23.8243 H   0  0  0  0  0  0  0  0  0  0  0  0
  -33.3814  -62.8759  -24.3483 H   0  0  0  0  0  0  0  0  0  0  0  0
  -31.9610  -61.2016  -25.5250 H   0  0  0  0  0  0  0  0  0  0  0  0
  -28.8762  -62.5063  -29.0730 H   0  0  0  0  0  0  0  0  0  0  0  0
  -29.7716  -65.0044  -28.7012 H   0  0  0  0  0  0  0  0  0  0  0  0
  -31.7283  -66.0214  -26.8452 H   0  0  0  0  0  0  0  0  0  0  0  0
  1  2  1  0
  2  3  2  0
  2  4  1  0
  5  4  1  0
  5  6  1  0
  6  7  1  0
  6  8  1  0
  8  9  1  0
  8 10  1  0
 10 11  1  0
 11 12  1  0
 10 13  1  0
  5 14  1  0
 13 14  1  0
 14 15  1  0
 15 16  1  0
 16 17  1  0
 17 18  1  0
 18 19  2  0
 19 20  1  0
 20 21  2  0
 21 22  1  0
 22 23  1  0
 23 24  2  0
 21 25  1  0
 24 25  1  0
 18 26  1  0
 25 26  2  0
  1 27  1  1
  1 28  1  0
  1 29  1  0
  4 30  1  0
  5 31  1  6
  6 32  1  1
  7 33  1  0
  8 34  1  6
  9 35  1  0
 10 36  1  1
 11 37  1  6
 11 38  1  0
 12 39  1  0
 14 40  1  6
 16 41  1  1
 16 42  1  0
 17 43  1  6
 17 44  1  0
 19 45  1  0
 20 46  1  0
 23 47  1  0
 24 48  1  0
 26 49  1  0
M  END
