7M41_YQG_B_201
     RDKit          3D

 48 52  0  0  0  0  0  0  0  0999 V2000
   -6.9395   -8.5434    6.4521 N   0  0  0  0  0  4  0  0  0  0  0  0
   -9.6946   -7.9892    4.2021 N   0  0  0  0  0  0  0  0  0  0  0  0
   -4.6455   -7.8536    6.1803 C   0  0  0  0  0  0  0  0  0  0  0  0
   -5.9657   -7.9172    5.7137 C   0  0  0  0  0  0  0  0  0  0  0  0
   -6.2869   -7.3265    4.4657 C   0  0  0  0  0  0  0  0  0  0  0  0
   -8.2263   -8.6069    5.9999 C   0  0  0  0  0  0  0  0  0  0  0  0
   -7.6149   -7.4210    4.0499 C   0  0  0  0  0  0  0  0  0  0  0  0
  -10.5109   -6.9784    2.0614 C   0  0  0  0  0  0  0  0  0  0  0  0
   -0.6717   -5.1716    2.9985 C   0  0  0  0  0  0  0  0  0  0  0  0
   -2.3577   -4.8201    1.2990 C   0  0  0  0  0  0  0  0  0  0  0  0
   -1.1954   -6.3059    5.1790 C   0  0  0  0  0  0  0  0  0  0  0  0
    1.8258   -1.7324    4.7643 C   0  0  0  0  0  0  0  0  0  0  0  0
   -5.2980   -6.6856    3.7097 C   0  0  0  0  0  0  0  0  0  0  0  0
   -2.9501   -5.9423    3.3698 C   0  0  0  0  0  0  0  0  0  0  0  0
   -1.6215   -5.7908    3.8287 C   0  0  0  0  0  0  0  0  0  0  0  0
   -1.0302   -4.6880    1.7266 C   0  0  0  0  0  0  0  0  0  0  0  0
   -3.3065   -5.4447    2.1087 C   0  0  0  0  0  0  0  0  0  0  0  0
    1.3393   -2.7743    2.9802 C   0  0  0  0  0  0  0  0  0  0  0  0
    0.5683   -2.2761    4.9044 C   0  0  0  0  0  0  0  0  0  0  0  0
   -3.9781   -6.6278    4.1831 C   0  0  0  0  0  0  0  0  0  0  0  0
   -3.6544   -7.2144    5.4247 C   0  0  0  0  0  0  0  0  0  0  0  0
   -9.4484   -7.3233    3.0487 C   0  0  0  0  0  0  0  0  0  0  0  0
   -8.5237   -8.0407    4.8051 N   0  0  0  0  0  0  0  0  0  0  0  0
   -8.1528   -6.9348    2.9149 N   0  0  0  0  0  0  0  0  0  0  0  0
   -0.0743   -4.0555    0.8564 N   0  0  0  0  0  0  0  0  0  0  0  0
    0.2656   -2.9333    3.7754 N   0  0  0  0  0  4  0  0  0  0  0  0
    2.3205   -2.0454    3.5500 N   0  0  0  0  0  0  0  0  0  0  0  0
   -9.1184   -9.1805    6.6811 O   0  0  0  0  0  0  0  0  0  0  0  0
    2.4443   -4.6251    1.4356 O   0  0  0  0  0  0  0  0  0  0  0  0
    1.9844   -2.4567    0.4001 O   0  0  0  0  0  0  0  0  0  0  0  0
    1.4762   -3.4776    1.3791 S   0  0  2  0  0  6  0  0  0  0  0  0
   -2.0073   -7.1938    6.0465 Cl  0  0  0  0  0  0  0  0  0  0  0  0
   -6.7016   -8.9788    7.3730 H   0  0  0  0  0  0  0  0  0  0  0  0
   -4.3849   -8.3043    7.1302 H   0  0  0  0  0  0  0  0  0  0  0  0
  -10.0749   -6.9138    1.0423 H   0  0  0  0  0  0  0  0  0  0  0  0
  -11.3008   -7.7586    2.0662 H   0  0  0  0  0  0  0  0  0  0  0  0
  -10.9607   -6.0000    2.3299 H   0  0  0  0  0  0  0  0  0  0  0  0
    0.3415   -5.0615    3.3573 H   0  0  0  0  0  0  0  0  0  0  0  0
   -2.6563   -4.4498    0.3262 H   0  0  0  0  0  0  0  0  0  0  0  0
   -0.2304   -5.8575    5.4977 H   0  0  0  0  0  0  0  0  0  0  0  0
   -1.0744   -7.4083    5.1354 H   0  0  0  0  0  0  0  0  0  0  0  0
   -1.9542   -6.0495    5.9483 H   0  0  0  0  0  0  0  0  0  0  0  0
    2.3529   -1.1462    5.5047 H   0  0  0  0  0  0  0  0  0  0  0  0
   -5.5489   -6.2292    2.7589 H   0  0  0  0  0  0  0  0  0  0  0  0
   -4.3223   -5.5506    1.7471 H   0  0  0  0  0  0  0  0  0  0  0  0
   -0.0775   -2.2016    5.7694 H   0  0  0  0  0  0  0  0  0  0  0  0
   -0.2716   -4.0145   -0.1687 H   0  0  0  0  0  0  0  0  0  0  0  0
   -0.6109   -3.4611    3.5676 H   0  0  0  0  0  0  0  0  0  0  0  0
  1  4  4  0
  3  4  4  0
  4  5  4  0
  1  6  4  0
  5  7  4  0
  5 13  4  0
  9 15  4  0
 11 15  1  0
 14 15  4  0
  9 16  4  0
 10 16  4  0
 10 17  4  0
 14 17  4  0
 12 19  4  0
 13 20  4  0
 14 20  1  0
 20 21  4  0
  3 21  4  0
  8 22  1  0
  2 22  4  0
  2 23  4  0
  7 23  4  0
  6 23  4  0
 22 24  4  0
  7 24  4  0
 16 25  1  0
 19 26  4  0
 18 26  4  0
 12 27  4  0
 18 27  4  0
  6 28  2  0
 18 31  1  0
 30 31  2  0
 29 31  2  0
 31 25  1  1
 21 32  1  0
  1 33  1  0
  3 34  1  0
  8 35  1  0
  8 36  1  0
  8 37  1  0
  9 38  1  0
 10 39  1  0
 11 40  1  0
 11 41  1  0
 11 42  1  0
 12 43  1  0
 13 44  1  0
 17 45  1  0
 19 46  1  0
 25 47  1  0
 26 48  1  0
M  CHG  2   1   1  26   1
M  END
