@<TRIPOS>MOLECULE
1P2Y_NCT_A_440
 26 27 0 0 0
SMALL
GASTEIGER

@<TRIPOS>ATOM
      1 N           1.6845    1.7848   -2.2423 N.ar    1  UNL1       -0.2629
      2 C           0.8674    1.5384   -1.1841 C.ar    1  UNL1        0.0322
      3 C           0.8659    0.2784   -0.5589 C.ar    1  UNL1       -0.0122
      4 C           1.7694   -0.6940   -1.0312 C.ar    1  UNL1       -0.0542
      5 C           2.5962   -0.4142   -2.1207 C.ar    1  UNL1       -0.0433
      6 C           2.5353    0.8418   -2.7229 C.ar    1  UNL1        0.0276
      7 N          -1.4567    0.3980    0.4179 N.3     1  UNL1       -0.2984
      8 C          -0.0380    0.0595    0.6511 C.3     1  UNL1        0.0368
      9 C          -0.0278   -1.3300    1.2833 C.3     1  UNL1       -0.0320
     10 C          -1.3168   -1.3693    2.0850 C.3     1  UNL1       -0.0385
     11 C          -2.1536   -0.1943    1.5733 C.3     1  UNL1       -0.0008
     12 C          -1.9898   -0.1779   -0.8363 C.3     1  UNL1       -0.0122
     13 H           0.2116    2.3240   -0.8311 H       1  UNL1        0.0833
     14 H           1.8555   -1.6641   -0.5639 H       1  UNL1        0.0622
     15 H           3.2852   -1.1628   -2.4899 H       1  UNL1        0.0633
     16 H           3.1723    1.0712   -3.5666 H       1  UNL1        0.0829
     17 H           0.3435    0.7611    1.4294 H       1  UNL1        0.0512
     18 H          -0.0695   -2.1247    0.5075 H       1  UNL1        0.0284
     19 H           0.8640   -1.4795    1.9305 H       1  UNL1        0.0284
     20 H          -1.1040   -1.2479    3.1698 H       1  UNL1        0.0278
     21 H          -1.8485   -2.3327    1.9237 H       1  UNL1        0.0278
     22 H          -3.1920   -0.5203    1.3357 H       1  UNL1        0.0427
     23 H          -2.2311    0.5769    2.3706 H       1  UNL1        0.0427
     24 H          -3.0774    0.0345   -0.9207 H       1  UNL1        0.0391
     25 H          -1.8350   -1.2779   -0.8855 H       1  UNL1        0.0391
     26 H          -1.5157    0.2970   -1.7191 H       1  UNL1        0.0391
@<TRIPOS>BOND
     1     1     2   ar
     2     2     3   ar
     3     3     4   ar
     4     4     5   ar
     5     1     6   ar
     6     5     6   ar
     7     8     3    1
     8     7     8    1
     9     8     9    1
    10     9    10    1
    11     7    11    1
    12    10    11    1
    13     7    12    1
    14     2    13    1
    15     4    14    1
    16     5    15    1
    17     6    16    1
    18     8    17    1
    19     9    18    1
    20     9    19    1
    21    10    20    1
    22    10    21    1
    23    11    22    1
    24    11    23    1
    25    12    24    1
    26    12    25    1
    27    12    26    1
