@<TRIPOS>MOLECULE
1P2Y_NCT_A_440
 26 27 0 0 0
SMALL
GASTEIGER

@<TRIPOS>ATOM
      1 N          14.5300   10.9590   39.3960 N.ar    1  UNL1       -0.2629
      2 C          14.8480   11.5340   40.5560 C.ar    1  UNL1        0.0322
      3 C          15.9830   12.2950   40.7340 C.ar    1  UNL1       -0.0122
      4 C          16.8250   12.4490   39.6380 C.ar    1  UNL1       -0.0542
      5 C          16.5230   11.8390   38.4340 C.ar    1  UNL1       -0.0433
      6 C          15.3520   11.1050   38.3520 C.ar    1  UNL1        0.0276
      7 N          17.6410   13.4010   42.2340 N.3     1  UNL1       -0.2984
      8 C          16.2700   12.9520   42.0610 C.3     1  UNL1        0.0368
      9 C          15.4670   14.2580   42.2210 C.3     1  UNL1       -0.0320
     10 C          16.2810   15.0920   43.2200 C.3     1  UNL1       -0.0385
     11 C          17.6370   14.3510   43.3350 C.3     1  UNL1       -0.0008
     12 C          18.6320   12.3520   42.3570 C.3     1  UNL1       -0.0122
     13 H          14.2136   11.4029   41.3594 H       1  UNL1        0.0833
     14 H          17.6795   13.0213   39.7235 H       1  UNL1        0.0622
     15 H          17.1520   11.9283   37.6207 H       1  UNL1        0.0633
     16 H          15.1058   10.6561   37.4560 H       1  UNL1        0.0829
     17 H          16.0220   12.1828   42.7622 H       1  UNL1        0.0512
     18 H          14.4893   14.0557   42.6059 H       1  UNL1        0.0284
     19 H          15.3257   14.7646   41.2892 H       1  UNL1        0.0284
     20 H          15.7894   15.1294   44.1696 H       1  UNL1        0.0278
     21 H          16.3989   16.1063   42.9004 H       1  UNL1        0.0278
     22 H          18.4509   15.0392   43.2409 H       1  UNL1        0.0427
     23 H          17.7522   13.8683   44.2829 H       1  UNL1        0.0427
     24 H          18.5681   11.7000   41.5110 H       1  UNL1        0.0391
     25 H          18.4514   11.7939   43.2519 H       1  UNL1        0.0391
     26 H          19.6086   12.7871   42.3990 H       1  UNL1        0.0391
@<TRIPOS>BOND
     1     1     2   ar
     2     2     3   ar
     3     3     4   ar
     4     4     5   ar
     5     1     6   ar
     6     5     6   ar
     7     8     3    1
     8     7     8    1
     9     8     9    1
    10     9    10    1
    11     7    11    1
    12    10    11    1
    13     7    12    1
    14     2    13    1
    15     4    14    1
    16     5    15    1
    17     6    16    1
    18     8    17    1
    19     9    18    1
    20     9    19    1
    21    10    20    1
    22    10    21    1
    23    11    22    1
    24    11    23    1
    25    12    24    1
    26    12    25    1
    27    12    26    1
