1MMV_3AR_B_2785
     RDKit          3D

 15 14  0  0  0  0  0  0  0  0999 V2000
   11.6234   -3.7572   43.5237 N   0  0  0  0  0  0  0  0  0  0  0  0
   11.4823   -2.6572   42.5659 C   0  0  2  0  0  0  0  0  0  0  0  0
   10.0975   -2.6459   41.9542 C   0  0  0  0  0  0  0  0  0  0  0  0
    9.4686   -1.6020   41.7961 O   0  0  0  0  0  0  0  0  0  0  0  0
   12.5626   -2.8137   41.4661 C   0  0  0  0  0  0  0  0  0  0  0  0
   13.9563   -2.2418   41.8308 C   0  0  0  0  0  0  0  0  0  0  0  0
   15.1211   -3.1924   41.5071 C   0  0  0  0  0  0  0  0  0  0  0  0
   14.8064   -3.9940   40.2833 N   0  0  0  0  0  0  0  0  0  0  0  0
   15.0994   -3.6602   39.0312 C   0  0  0  0  0  0  0  0  0  0  0  0
   16.1493   -2.9352   38.6849 N   0  0  0  0  0  0  0  0  0  0  0  0
   14.2873   -4.0918   38.1055 N   0  0  0  0  0  0  0  0  0  0  0  0
   16.3805   -1.6393   39.3731 C   0  0  0  0  0  0  0  0  0  0  0  0
   16.5485   -1.8752   40.8940 C   0  0  0  0  0  0  0  0  0  0  0  0
   15.6612   -3.0646   41.3396 C   0  0  0  0  0  0  0  0  0  0  0  0
    9.6283   -3.7404   41.6419 O   0  0  0  0  0  0  0  0  0  0  0  0
  2  1  1  1
  2  3  1  0
  3  4  2  0
  2  5  1  0
  5  6  1  0
  6  7  1  0
  7  8  1  0
  8  9  1  0
  9 10  1  0
  9 11  2  0
 10 12  1  0
 12 13  1  0
 13 14  1  0
  3 15  1  0
M  CHG  1  11   1
M  END
