
     RDKit          3D

 20 22  0  0  0  0  0  0  0  0999 V2000
   36.0754   26.6277   65.9826 C   0  0  0  0  0  0  0  0  0  0  0  0
   34.9013   27.7956   65.2449 S   0  0  0  0  0  0  0  0  0  0  0  0
   33.7529   26.6066   64.4887 C   0  0  0  0  0  0  0  0  0  0  0  0
   32.2959   27.0193   64.7574 C   0  0  1  0  0  0  0  0  0  0  0  0
   31.3566   26.1709   63.9312 N   0  0  0  0  0  4  0  0  0  0  0  0
   31.5057   25.2548   66.1779 C   0  0  2  0  0  0  0  0  0  0  0  0
   30.5883   24.9167   67.2175 O   0  0  0  0  0  0  0  0  0  0  0  0
   31.7755   26.7596   66.1757 C   0  0  2  0  0  0  0  0  0  0  0  0
   30.5083   27.4271   66.3465 O   0  0  0  0  0  0  0  0  0  0  0  0
   30.9295   24.9809   64.7662 C   0  0  2  0  0  0  0  0  0  0  0  0
   31.3806   23.6787   64.1837 C   0  0  0  0  0  0  0  0  0  0  0  0
   31.3462   23.3017   62.8456 C   0  0  0  0  0  0  0  0  0  0  0  0
   31.8647   22.0295   62.7185 N   0  0  0  0  0  0  0  0  0  0  0  0
   32.2386   21.5885   63.9558 C   0  0  0  0  0  0  0  0  0  0  0  0
   32.8355   20.3504   64.3272 C   0  0  0  0  0  0  0  0  0  0  0  0
   33.1061   19.4376   63.5609 O   0  0  0  0  0  0  0  0  0  0  0  0
   33.0766   20.2994   65.6801 N   0  0  0  0  0  0  0  0  0  0  0  0
   32.7620   21.3303   66.5401 C   0  0  0  0  0  0  0  0  0  0  0  0
   32.2076   22.4690   66.2272 N   0  0  0  0  0  0  0  0  0  0  0  0
   31.9495   22.5747   64.8532 C   0  0  0  0  0  0  0  0  0  0  0  0
  1  2  1  0
  2  3  1  0
  4  3  1  1
  4  5  1  0
  6  7  1  1
  4  8  1  0
  6  8  1  0
  8  9  1  6
  5 10  1  0
  6 10  1  0
 10 11  1  6
 11 12  4  0
 12 13  4  0
 13 14  4  0
 14 15  4  0
 15 16  2  0
 15 17  4  0
 17 18  4  0
 18 19  4  0
 11 20  4  0
 14 20  4  0
 19 20  4  0
M  CHG  1   5   1
M  END
