1V4S_MRK_A_501
     RDKit          3D

 35 37  0  0  0  0  0  0  0  0999 V2000
   33.9324    6.1388   61.3139 S   0  0  0  0  0  0  0  0  0  0  0  0
   32.7518    4.9433   61.2469 C   0  0  0  0  0  0  0  0  0  0  0  0
   31.5139    5.5539   61.4111 C   0  0  0  0  0  0  0  0  0  0  0  0
   31.5518    6.9030   61.5789 N   0  0  0  0  0  0  0  0  0  0  0  0
   32.8159    7.3779   61.5581 C   0  0  0  0  0  0  0  0  0  0  0  0
   33.1132    8.7765   61.6830 N   0  0  0  0  0  0  0  0  0  0  0  0
   34.3264    9.3125   62.2387 C   0  0  0  0  0  0  0  0  0  0  0  0
   35.2609    8.5451   62.5940 O   0  0  0  0  0  0  0  0  0  0  0  0
   35.2081   11.3591   63.4543 C   0  0  0  0  0  0  0  0  0  0  0  0
   34.4939   10.7769   62.3769 C   0  0  0  0  0  0  0  0  0  0  0  0
   33.9633   11.6104   61.3770 C   0  0  0  0  0  0  0  0  0  0  0  0
   34.1607   12.9935   61.4188 C   0  0  0  0  0  0  0  0  0  0  0  0
   34.8779   13.5626   62.4758 C   0  0  0  0  0  0  0  0  0  0  0  0
   35.0714   14.9043   62.5313 F   0  0  0  0  0  0  0  0  0  0  0  0
   35.3984   12.7495   63.4839 C   0  0  0  0  0  0  0  0  0  0  0  0
   33.4928   14.0276   60.1134 S   0  0  0  0  0  0  0  0  0  0  0  0
   34.3335   12.0388   58.3443 N   0  0  0  0  0  0  0  0  0  0  0  0
   34.5272   13.2721   58.8567 C   0  0  0  0  0  0  0  0  0  0  0  0
   35.6004   13.8948   58.3269 N   0  0  0  0  0  0  0  0  0  0  0  0
   36.1047   12.9969   57.4556 C   0  0  0  0  0  0  0  0  0  0  0  0
   35.3364   11.8537   57.4711 C   0  0  0  0  0  0  0  0  0  0  0  0
   33.3323   11.0494   58.7286 C   0  0  1  0  0  0  0  0  0  0  0  0
   35.6986   10.5729   64.5491 N   0  0  0  0  0  0  0  0  0  0  0  0
   32.9222    3.8856   61.0979 H   0  0  0  0  0  0  0  0  0  0  0  0
   30.5826    5.0040   61.4035 H   0  0  0  0  0  0  0  0  0  0  0  0
   32.3809    9.4483   61.3602 H   0  0  0  0  0  0  0  0  0  0  0  0
   33.4150   11.1823   60.5470 H   0  0  0  0  0  0  0  0  0  0  0  0
   35.9399   13.2062   64.3029 H   0  0  0  0  0  0  0  0  0  0  0  0
   36.9869   13.1630   56.8523 H   0  0  0  0  0  0  0  0  0  0  0  0
   35.5039   10.9529   56.8948 H   0  0  0  0  0  0  0  0  0  0  0  0
   33.5260   10.6943   59.7630 H   0  0  0  0  0  0  0  0  0  0  0  0
   32.3225   11.5076   58.6880 H   0  0  0  0  0  0  0  0  0  0  0  0
   33.3697   10.1741   58.0470 H   0  0  0  0  0  0  0  0  0  0  0  0
   35.4495    9.5669   64.6649 H   0  0  0  0  0  0  0  0  0  0  0  0
   36.2381   11.0222   65.3224 H   0  0  0  0  0  0  0  0  0  0  0  0
  1  2  1  0
  2  3  2  0
  3  4  1  0
  1  5  1  0
  4  5  2  0
  5  6  1  0
  6  7  1  0
  7  8  2  0
  7 10  1  0
  9 10  2  0
 10 11  1  0
 11 12  2  0
 12 13  1  0
 13 14  1  0
  9 15  1  0
 13 15  2  0
 12 16  1  0
 16 18  1  0
 17 18  1  0
 18 19  2  0
 19 20  1  0
 17 21  1  0
 20 21  2  0
 17 22  1  0
  9 23  1  0
  2 24  1  0
  3 25  1  0
  6 26  1  0
 11 27  1  0
 15 28  1  0
 20 29  1  0
 21 30  1  0
 22 31  1  1
 22 32  1  0
 22 33  1  0
 23 34  1  0
 23 35  1  0
M  END
