1YGC_905_H_1
     RDKit          3D

 38 40  0  0  0  0  0  0  0  0999 V2000
   12.1127   38.8055   28.0952 O   0  0  0  0  0  0  0  0  0  0  0  0
   12.5311   38.5700   29.4048 C   0  0  0  0  0  0  0  0  0  0  0  0
   11.7367   39.0931   30.4034 C   0  0  0  0  0  0  0  0  0  0  0  0
   12.0202   38.9435   31.7482 C   0  0  0  0  0  0  0  0  0  0  0  0
   11.2088   39.4780   32.7826 N   0  0  0  0  0  0  0  0  0  0  0  0
   10.0908   40.3126   32.4654 C   0  0  1  0  0  0  0  0  0  0  0  0
    9.0369   40.3628   33.4855 C   0  0  0  0  0  0  0  0  0  0  0  0
    9.2388   39.7252   34.5700 O   0  0  0  0  0  0  0  0  0  0  0  0
    7.8131   41.0580   33.3689 N   0  0  0  0  0  0  0  0  0  0  0  0
    6.5963   41.0482   34.5889 S   0  0  2  0  0  6  0  0  0  0  0  0
    6.1551   39.6148   34.7930 O   0  0  0  0  0  0  0  0  0  0  0  0
    5.3560   41.7795   34.1300 O   0  0  0  0  0  0  0  0  0  0  0  0
    7.1005   41.7849   36.0710 C   0  0  0  0  0  0  0  0  0  0  0  0
    7.0011   41.1707   37.3037 C   0  0  0  0  0  0  0  0  0  0  0  0
    7.4280   41.8239   38.4599 C   0  0  0  0  0  0  0  0  0  0  0  0
    7.9592   43.1095   38.3630 C   0  0  0  0  0  0  0  0  0  0  0  0
    8.0617   43.7309   37.1311 C   0  0  0  0  0  0  0  0  0  0  0  0
    8.5980   45.0458   36.9778 N   0  0  0  0  0  0  0  0  0  0  0  0
    7.6354   43.0706   36.0016 C   0  0  0  0  0  0  0  0  0  0  0  0
   10.5101   41.7233   32.1890 C   0  0  0  0  0  0  0  0  0  0  0  0
   10.3890   42.2382   30.9164 C   0  0  0  0  0  0  0  0  0  0  0  0
    9.8828   41.4198   29.9519 F   0  0  0  0  0  0  0  0  0  0  0  0
   10.7676   43.5514   30.6104 C   0  0  0  0  0  0  0  0  0  0  0  0
   10.5912   43.9345   29.2967 O   0  0  0  0  0  0  0  0  0  0  0  0
   11.0628   45.1935   28.8795 C   0  0  0  0  0  0  0  0  0  0  0  0
   10.7883   45.4912   27.4238 C   0  0  0  0  0  0  0  0  0  0  0  0
   11.2683   44.3323   31.6080 C   0  0  0  0  0  0  0  0  0  0  0  0
   11.4100   43.8683   32.8921 C   0  0  0  0  0  0  0  0  0  0  0  0
   11.9047   44.5798   33.9562 O   0  0  0  0  0  0  0  0  0  0  0  0
   12.6183   43.9441   34.9799 C   0  0  0  0  0  0  0  0  0  0  0  0
   13.2454   44.9655   35.8738 C   0  0  0  0  0  0  0  0  0  0  0  0
   11.0204   42.5515   33.1565 C   0  0  0  0  0  0  0  0  0  0  0  0
   13.1771   38.2197   32.0394 C   0  0  0  0  0  0  0  0  0  0  0  0
   13.9774   37.6929   31.0457 C   0  0  0  0  0  0  0  0  0  0  0  0
   13.6678   37.8593   29.7144 C   0  0  0  0  0  0  0  0  0  0  0  0
   14.4701   37.3294   28.6260 C   0  0  0  0  0  0  0  0  0  0  0  0
   14.0606   37.5372   27.4229 N   0  0  0  0  0  0  0  0  0  0  0  0
   15.6783   36.5979   28.8538 N   0  0  0  0  0  0  0  0  0  0  0  0
  1  2  1  0
  2  3  2  0
  3  4  1  0
  4  5  1  0
  6  5  1  1
  6  7  1  0
  7  8  2  0
  7  9  1  0
 10  9  1  6
 10 11  2  0
 10 12  2  0
 10 13  1  0
 13 14  2  0
 14 15  1  0
 15 16  2  0
 16 17  1  0
 17 18  1  0
 13 19  1  0
 17 19  2  0
  6 20  1  0
 20 21  2  0
 21 22  1  0
 21 23  1  0
 23 24  1  0
 25 24  1  6
 26 25  1  6
 23 27  2  0
 27 28  1  0
 28 29  1  0
 30 29  1  6
 31 30  1  6
 20 32  1  0
 28 32  2  0
  4 33  2  0
 33 34  1  0
  2 35  1  0
 34 35  2  0
 35 36  1  0
 36 37  2  0
 36 38  1  0
M  END
$$$$
