7B0E_C2E_A_401
     RDKit          3D

 46 52  0  0  0  0  0  0  0  0999 V2000
  -12.2243  -29.8084  -19.6802 P   0  0  1  0  0  5  0  0  0  0  0  0
  -13.5156  -29.2620  -18.7032 O   0  0  0  0  0  0  0  0  0  0  0  0
  -11.8591  -28.6260  -20.5605 O   0  0  0  0  0  0  0  0  0  0  0  0
  -10.9364  -30.1277  -18.6820 O   0  0  0  0  0  0  0  0  0  0  0  0
   -9.9339  -30.8983  -19.2105 C   0  0  0  0  0  0  0  0  0  0  0  0
   -9.5566  -31.9642  -18.2029 C   0  0  1  0  0  0  0  0  0  0  0  0
   -8.3696  -31.6629  -17.5920 O   0  0  0  0  0  0  0  0  0  0  0  0
  -10.6118  -32.0635  -17.1024 C   0  0  1  0  0  0  0  0  0  0  0  0
  -10.5394  -33.2894  -16.4837 O   0  0  0  0  0  0  0  0  0  0  0  0
  -10.0087  -31.0425  -16.1246 C   0  0  1  0  0  0  0  0  0  0  0  0
  -10.4861  -31.2684  -14.8386 O   0  0  0  0  0  0  0  0  0  0  0  0
   -8.5678  -31.4876  -16.2495 C   0  0  2  0  0  0  0  0  0  0  0  0
   -7.6480  -30.5868  -15.6195 N   0  0  0  0  0  0  0  0  0  0  0  0
   -7.6204  -29.2618  -15.8558 C   0  0  0  0  0  0  0  0  0  0  0  0
   -6.6617  -28.6800  -15.1290 N   0  0  0  0  0  0  0  0  0  0  0  0
   -6.0462  -29.6236  -14.4034 C   0  0  0  0  0  0  0  0  0  0  0  0
   -5.0077  -29.5680  -13.5031 C   0  0  0  0  0  0  0  0  0  0  0  0
   -4.4682  -28.4808  -13.2435 O   0  0  0  0  0  0  0  0  0  0  0  0
   -4.6143  -30.7377  -12.9280 N   0  0  0  0  0  0  0  0  0  0  0  0
   -5.2443  -31.8888  -13.2545 C   0  0  0  0  0  0  0  0  0  0  0  0
   -4.7703  -33.0687  -12.6066 N   0  0  0  0  0  0  0  0  0  0  0  0
   -6.2559  -31.9205  -14.1359 N   0  0  0  0  0  0  0  0  0  0  0  0
   -6.6752  -30.8089  -14.7223 C   0  0  0  0  0  0  0  0  0  0  0  0
  -11.7740  -34.3461  -16.9345 P   0  0  2  0  0  5  0  0  0  0  0  0
  -13.2733  -33.7454  -16.4614 O   0  0  0  0  0  0  0  0  0  0  0  0
  -11.5078  -35.6730  -16.2405 O   0  0  0  0  0  0  0  0  0  0  0  0
  -11.6695  -34.6454  -18.5781 O   0  0  0  0  0  0  0  0  0  0  0  0
  -12.9118  -34.3454  -19.1705 C   0  0  0  0  0  0  0  0  0  0  0  0
  -12.7086  -33.3926  -20.2970 C   0  0  1  0  0  0  0  0  0  0  0  0
  -13.1819  -33.8065  -21.5235 O   0  0  0  0  0  0  0  0  0  0  0  0
  -13.3955  -32.0688  -19.9728 C   0  0  1  0  0  0  0  0  0  0  0  0
  -12.7091  -31.0869  -20.6449 O   0  0  0  0  0  0  0  0  0  0  0  0
  -14.7564  -32.3513  -20.6187 C   0  0  1  0  0  0  0  0  0  0  0  0
  -15.4748  -31.2046  -20.8615 O   0  0  0  0  0  0  0  0  0  0  0  0
  -14.3202  -33.0891  -21.8448 C   0  0  2  0  0  0  0  0  0  0  0  0
  -15.3083  -34.0329  -22.3399 N   0  0  0  0  0  0  0  0  0  0  0  0
  -15.0328  -35.2762  -22.8254 C   0  0  0  0  0  0  0  0  0  0  0  0
  -16.1683  -35.8835  -23.1968 N   0  0  0  0  0  0  0  0  0  0  0  0
  -17.1801  -35.0359  -22.9530 C   0  0  0  0  0  0  0  0  0  0  0  0
  -18.5448  -35.1717  -23.1535 C   0  0  0  0  0  0  0  0  0  0  0  0
  -18.9903  -36.2345  -23.6405 O   0  0  0  0  0  0  0  0  0  0  0  0
  -19.3109  -34.1237  -22.8007 N   0  0  0  0  0  0  0  0  0  0  0  0
  -18.7796  -32.9882  -22.2746 C   0  0  0  0  0  0  0  0  0  0  0  0
  -19.7052  -31.9609  -21.9472 N   0  0  0  0  0  0  0  0  0  0  0  0
  -17.4491  -32.8568  -22.0795 N   0  0  0  0  0  0  0  0  0  0  0  0
  -16.6425  -33.8816  -22.4184 C   0  0  0  0  0  0  0  0  0  0  0  0
  1  2  1  1
  1  3  2  0
  1  4  1  0
  5  4  1  6
  6  5  1  0
  6  7  1  1
  6  8  1  0
  8  9  1  1
  8 10  1  0
 10 11  1  1
 10 12  1  0
  7 12  1  0
 12 13  1  6
 13 14  1  0
 14 15  2  0
 15 16  1  0
 16 17  1  0
 17 18  2  0
 17 19  1  0
 19 20  1  0
 20 21  1  0
 20 22  2  0
 13 23  1  0
 22 23  1  0
 16 23  2  0
  9 24  1  0
 24 25  1  6
 24 26  2  0
 24 27  1  0
 28 27  1  6
 29 28  1  0
 29 30  1  6
 29 31  1  0
 31 32  1  6
  1 32  1  0
 31 33  1  0
 33 34  1  6
 30 35  1  0
 33 35  1  0
 35 36  1  1
 36 37  1  0
 37 38  2  0
 38 39  1  0
 39 40  1  0
 40 41  2  0
 40 42  1  0
 42 43  1  0
 43 44  1  0
 43 45  2  0
 36 46  1  0
 39 46  2  0
 45 46  1  0
M  END
$$$$
