7NP6_UK8_A_601
     RDKit          3D

 32 35  0  0  0  0  0  0  0  0999 V2000
   -4.1251   36.0952    3.6536 C   0  0  0  0  0  0  0  0  0  0  0  0
   -2.5088   35.9655    5.9429 C   0  0  0  0  0  0  0  0  0  0  0  0
   -1.6802   35.8662    7.1472 C   0  0  1  0  0  0  0  0  0  0  0  0
    1.2579   33.0223    4.6005 C   0  0  0  0  0  0  0  0  0  0  0  0
    2.5797   33.1964    4.2455 C   0  0  0  0  0  0  0  0  0  0  0  0
    5.0314   33.0854    4.6890 C   0  0  0  0  0  0  0  0  0  0  0  0
   -4.1625   35.0194    4.5283 C   0  0  0  0  0  0  0  0  0  0  0  0
   -3.2418   37.1103    3.9708 C   0  0  0  0  0  0  0  0  0  0  0  0
   -2.4314   37.0750    5.0930 C   0  0  0  0  0  0  0  0  0  0  0  0
   -3.0772   31.8016    7.5435 C   0  0  0  0  0  0  0  0  0  0  0  0
   -2.5968   30.5160    8.0031 C   0  0  0  0  0  0  0  0  0  0  0  0
   -1.6506   29.7723    7.3199 C   0  0  0  0  0  0  0  0  0  0  0  0
   -2.8995   29.7735    9.1157 C   0  0  0  0  0  0  0  0  0  0  0  0
    3.6362   32.8946    5.0799 C   0  0  0  0  0  0  0  0  0  0  0  0
    3.3658   32.3917    6.3377 C   0  0  0  0  0  0  0  0  0  0  0  0
    2.0523   32.2083    6.7166 C   0  0  0  0  0  0  0  0  0  0  0  0
    0.9908   32.5151    5.8693 C   0  0  0  0  0  0  0  0  0  0  0  0
   -1.4820   32.4470    5.6682 C   0  0  0  0  0  0  0  0  0  0  0  0
   -2.6366   32.6438    6.5548 C   0  0  0  0  0  0  0  0  0  0  0  0
   -3.4735   33.7662    6.5316 C   0  0  0  0  0  0  0  0  0  0  0  0
   -3.3935   34.9200    5.6498 C   0  0  0  0  0  0  0  0  0  0  0  0
   -0.8189   34.7705    7.0043 F   0  0  0  0  0  0  0  0  0  0  0  0
   -0.8402   36.9626    7.3052 F   0  0  0  0  0  0  0  0  0  0  0  0
   -2.3454   35.6760    8.3130 F   0  0  0  0  0  0  0  0  0  0  0  0
   -4.3726   33.5438    7.5054 N   0  0  0  0  0  0  0  0  0  0  0  0
   -1.4046   28.6291    8.0078 N   0  0  0  0  0  0  0  0  0  0  0  0
   -2.1553   28.6296    9.0874 N   0  0  0  0  0  0  0  0  0  0  0  0
    5.9873   32.7135    5.4509 O   0  0  0  0  0  0  0  0  0  0  0  0
    5.3938   33.6664    3.4983 O   0  0  0  0  0  0  0  0  0  0  0  0
   -0.2719   32.2963    6.3414 O   0  0  0  0  0  0  0  0  0  0  0  0
   -4.1206   32.4042    8.0726 O   0  0  0  0  0  0  0  0  0  0  0  0
   -5.2877   33.7160    4.1323 Cl  0  0  0  0  0  0  0  0  0  0  0  0
  2  3  1  0
  4  5  2  0
  1  7  2  0
  1  8  1  0
  2  9  1  0
  8  9  2  0
 10 11  1  0
 11 12  2  0
 11 13  1  0
  5 14  1  0
  6 14  1  0
 14 15  2  0
 15 16  1  0
 16 17  2  0
  4 17  1  0
 10 19  2  0
 18 19  1  0
 19 20  1  0
 20 21  1  0
  7 21  1  0
  2 21  2  0
  3 22  1  6
  3 23  1  0
  3 24  1  0
 20 25  2  0
 12 26  1  0
 26 27  1  0
 13 27  2  0
  6 28  2  0
  6 29  1  0
 18 30  1  0
 17 30  1  0
 25 31  1  0
 10 31  1  0
  7 32  1  0
M  END
$$$$
