7UXS_OJC_B_501
     RDKit          3D

 56 60  0  0  0  0  0  0  0  0999 V2000
   -5.3473   -6.1435  -11.7654 N   0  0  0  0  0  0  0  0  0  0  0  0
   -6.4372   -6.6828  -11.1299 C   0  0  0  0  0  0  0  0  0  0  0  0
   -5.4257   -7.7443   -5.7881 O   0  0  0  0  0  0  0  0  0  0  0  0
   -4.1230   -6.0930  -11.1597 C   0  0  0  0  0  0  0  0  0  0  0  0
   -4.0196   -6.6066   -9.8718 C   0  0  0  0  0  0  0  0  0  0  0  0
   -5.1086   -7.1305   -9.2648 C   0  0  0  0  0  0  0  0  0  0  0  0
  -12.1169   -6.2118   -4.7642 C   0  0  0  0  0  0  0  0  0  0  0  0
  -11.9999   -6.4134   -6.2887 C   0  0  1  0  0  0  0  0  0  0  0  0
  -11.4092   -5.1985   -6.9939 C   0  0  1  0  0  0  0  0  0  0  0  0
   -9.9418   -5.5539   -7.0531 C   0  0  1  0  0  0  0  0  0  0  0  0
   -9.9247   -7.0971   -6.9908 C   0  0  2  0  0  0  0  0  0  0  0  0
   -3.4422   -7.3140   -7.9633 C   0  0  0  0  0  0  0  0  0  0  0  0
   -5.5889   -8.3100   -7.0766 C   0  0  1  0  0  0  0  0  0  0  0  0
   -7.0751   -8.2535   -7.4745 C   0  0  2  0  0  0  0  0  0  0  0  0
   -7.6452   -7.3194   -6.4365 C   0  0  2  0  0  0  0  0  0  0  0  0
   -6.7198   -7.5807   -5.2640 C   0  0  2  0  0  0  0  0  0  0  0  0
   -6.7731   -6.4497   -4.2338 C   0  0  0  0  0  0  0  0  0  0  0  0
   -6.3225   -7.1861   -9.8643 N   0  0  0  0  0  0  0  0  0  0  0  0
   -4.7723   -7.5759   -8.0461 N   0  0  0  0  0  4  0  0  0  0  0  0
   -2.9398   -6.7067   -9.0741 N   0  0  0  0  0  0  0  0  0  0  0  0
   -2.9983   -5.5355  -11.8399 N   0  0  0  0  0  0  0  0  0  0  0  0
   -8.0446   -6.4721   -3.6253 O   0  0  0  0  0  0  0  0  0  0  0  0
   -9.2942   -5.0346   -8.1923 O   0  0  0  0  0  0  0  0  0  0  0  0
  -11.9668   -5.0924   -8.2802 O   0  0  0  0  0  0  0  0  0  0  0  0
   -7.6628   -9.5254   -7.3679 O   0  0  0  0  0  0  0  0  0  0  0  0
   -7.0721   -4.8484   -1.7953 O   0  0  0  0  0  0  0  0  0  0  0  0
   -8.3963   -3.7161   -3.7447 O   0  0  0  0  0  0  0  0  0  0  0  0
   -9.6515   -5.2322   -1.7470 O   0  0  0  0  0  0  0  0  0  0  0  0
  -12.2249   -5.5442   -1.9781 O   0  0  0  0  0  0  0  0  0  0  0  0
  -11.2202   -3.4256   -3.1244 O   0  0  0  0  0  0  0  0  0  0  0  0
  -10.8445   -5.9799   -4.1912 O   0  0  0  0  0  0  0  0  0  0  0  0
  -11.2029   -7.5415   -6.5818 O   0  0  0  0  0  0  0  0  0  0  0  0
   -8.9824   -7.6027   -6.0616 O   0  0  0  0  0  0  0  0  0  0  0  0
   -8.2596   -5.0521   -2.7106 P   0  0  1  0  0  5  0  0  0  0  0  0
  -11.0160   -5.0666   -2.7529 P   0  0  1  0  0  5  0  0  0  0  0  0
   -7.3932   -6.7117  -11.6340 H   0  0  0  0  0  0  0  0  0  0  0  0
  -12.8348   -5.3749   -4.5986 H   0  0  0  0  0  0  0  0  0  0  0  0
  -12.5530   -7.1302   -4.3147 H   0  0  0  0  0  0  0  0  0  0  0  0
  -13.0263   -6.6016   -6.6752 H   0  0  0  0  0  0  0  0  0  0  0  0
  -11.5790   -4.2579   -6.4175 H   0  0  0  0  0  0  0  0  0  0  0  0
   -9.4471   -5.1310   -6.1510 H   0  0  0  0  0  0  0  0  0  0  0  0
   -9.7352   -7.5338   -7.9969 H   0  0  0  0  0  0  0  0  0  0  0  0
   -2.8336   -7.5759   -7.1073 H   0  0  0  0  0  0  0  0  0  0  0  0
   -5.2391   -9.3662   -7.0399 H   0  0  0  0  0  0  0  0  0  0  0  0
   -7.2321   -7.8371   -8.4977 H   0  0  0  0  0  0  0  0  0  0  0  0
   -7.4999   -6.2698   -6.7749 H   0  0  0  0  0  0  0  0  0  0  0  0
   -7.0105   -8.5298   -4.7537 H   0  0  0  0  0  0  0  0  0  0  0  0
   -6.5666   -5.4798   -4.7438 H   0  0  0  0  0  0  0  0  0  0  0  0
   -5.9877   -6.6331   -3.4675 H   0  0  0  0  0  0  0  0  0  0  0  0
   -2.0600   -5.4937  -11.3832 H   0  0  0  0  0  0  0  0  0  0  0  0
   -3.1045   -5.1603  -12.8085 H   0  0  0  0  0  0  0  0  0  0  0  0
   -9.6274   -5.5172   -8.9931 H   0  0  0  0  0  0  0  0  0  0  0  0
  -11.8165   -4.1581   -8.5809 H   0  0  0  0  0  0  0  0  0  0  0  0
   -7.3903  -10.0282   -8.1792 H   0  0  0  0  0  0  0  0  0  0  0  0
   -8.4269   -2.9309   -3.1418 H   0  0  0  0  0  0  0  0  0  0  0  0
  -11.6761   -3.4073   -4.0020 H   0  0  0  0  0  0  0  0  0  0  0  0
  1  2  4  0
  1  4  4  0
  4  5  4  0
  5  6  4  0
  8  7  1  0
  8  9  1  0
  9 10  1  0
 10 11  1  0
  3 13  1  0
 13 14  1  0
 14 15  1  0
  3 16  1  0
 15 16  1  0
 16 17  1  0
  2 18  4  0
  6 18  4  0
  6 19  4  0
 12 19  4  0
 13 19  1  0
  5 20  4  0
 12 20  4  0
  4 21  1  0
 17 22  1  0
 10 23  1  0
  9 24  1  0
 14 25  1  0
  7 31  1  0
 11 32  1  0
  8 32  1  0
 15 33  1  0
 11 33  1  0
 28 34  1  0
 22 34  1  0
 34 27  1  1
 26 34  2  0
 35 30  1  1
 28 35  1  0
 31 35  1  0
 29 35  2  0
  2 36  1  0
  7 37  1  0
  7 38  1  0
  8 39  1  1
  9 40  1  6
 10 41  1  6
 11 42  1  1
 12 43  1  0
 13 44  1  6
 14 45  1  1
 15 46  1  1
 16 47  1  6
 17 48  1  0
 17 49  1  0
 21 50  1  0
 21 51  1  0
 23 52  1  0
 24 53  1  0
 25 54  1  0
 27 55  1  0
 30 56  1  0
M  CHG  1  19   1
M  END
