6Z0R_Q4H_A_301
     RDKit          3D

  9  9  0  0  0  0  0  0  0  0999 V2000
   58.8150   -6.7495   78.5969 N   0  0  0  0  0  0  0  0  0  0  0  0
   58.8774   -5.7196   79.1503 C   0  0  0  0  0  0  0  0  0  0  0  0
   58.9465   -4.4570   79.8528 C   0  0  0  0  0  0  0  0  0  0  0  0
   58.0810   -4.1673   80.8928 C   0  0  0  0  0  0  0  0  0  0  0  0
   58.1739   -2.9676   81.5333 N   0  0  0  0  0  0  0  0  0  0  0  0
   59.1014   -2.0643   81.1605 C   0  0  0  0  0  0  0  0  0  0  0  0
   59.9692   -2.3219   80.1378 N   0  0  0  0  0  0  0  0  0  0  0  0
   59.8945   -3.5062   79.4886 C   0  0  0  0  0  0  0  0  0  0  0  0
   60.7851   -3.8273   78.4043 N   0  0  0  0  0  0  0  0  0  0  0  0
  1  2  3  0
  2  3  1  0
  3  4  2  0
  4  5  1  0
  5  6  2  0
  6  7  1  0
  7  8  2  0
  3  8  1  0
  8  9  1  0
M  END
$$$$
