
     RDKit          3D

 24 26  0  0  0  0  0  0  0  0999 V2000
  -10.6926    1.3506   21.5097 O   0  0  0  0  0  0  0  0  0  0  0  0
  -10.5104    1.4165   23.0853 P   0  0  0  0  0  5  0  0  0  0  0  0
   -9.8889    2.6869   23.5758 O   0  0  0  0  0  0  0  0  0  0  0  0
  -11.9834    1.1103   23.6204 O   0  0  0  0  0  0  0  0  0  0  0  0
   -9.6939    0.0998   23.4890 O   0  0  0  0  0  0  0  0  0  0  0  0
   -8.4978    0.1102   24.2560 C   0  0  0  0  0  0  0  0  0  0  0  0
   -8.3954   -0.9907   25.3223 C   0  0  1  0  0  0  0  0  0  0  0  0
   -7.0008   -1.2708   25.6103 O   0  0  0  0  0  0  0  0  0  0  0  0
   -9.0226   -0.5352   26.6452 C   0  0  1  0  0  0  0  0  0  0  0  0
   -9.4864   -1.6626   27.3920 O   0  0  0  0  0  0  0  0  0  0  0  0
   -7.8414    0.0770   27.3718 C   0  0  0  0  0  0  0  0  0  0  0  0
   -6.7218   -0.8711   26.9585 C   0  0  2  0  0  0  0  0  0  0  0  0
   -5.4089   -0.3181   27.0712 N   0  0  0  0  0  0  0  0  0  0  0  0
   -4.6150   -0.5333   28.2316 C   0  0  0  0  0  0  0  0  0  0  0  0
   -3.4267    0.1760   27.9962 N   0  0  0  0  0  0  0  0  0  0  0  0
   -3.5299    0.7768   26.7709 C   0  0  0  0  0  0  0  0  0  0  0  0
   -2.5804    1.6356   26.0645 C   0  0  0  0  0  0  0  0  0  0  0  0
   -1.4775    1.9110   26.5118 O   0  0  0  0  0  0  0  0  0  0  0  0
   -3.0564    2.0713   24.8459 N   0  0  0  0  0  0  0  0  0  0  0  0
   -4.2835    1.7159   24.3394 C   0  0  0  0  0  0  0  0  0  0  0  0
   -4.5762    2.2370   23.1151 N   0  0  0  0  0  0  0  0  0  0  0  0
   -5.1177    0.9391   24.9720 N   0  0  0  0  0  0  0  0  0  0  0  0
   -4.7069    0.4940   26.1980 C   0  0  0  0  0  0  0  0  0  0  0  0
   -4.8988   -1.1756   29.2291 O   0  0  0  0  0  0  0  0  0  0  0  0
  1  2  1  0
  2  3  2  0
  2  4  1  0
  2  5  1  0
  5  6  1  0
  7  6  1  6
  7  8  1  0
  7  9  1  0
  9 10  1  1
  9 11  1  0
  8 12  1  0
 11 12  1  0
 12 13  1  6
 13 14  4  0
 14 15  4  0
 15 16  4  0
 16 17  4  0
 17 18  2  0
 17 19  4  0
 19 20  4  0
 20 21  1  0
 20 22  4  0
 13 23  4  0
 16 23  4  0
 22 23  4  0
 14 24  2  0
M  END
