7ELT_TYM_A_401
     RDKit          3D

 61 65  0  0  0  0  0  0  0  0999 V2000
   11.9268   45.9272   19.0301 P   0  0  2  0  0  5  0  0  0  0  0  0
   11.8124   45.2876   20.5954 O   0  0  0  0  0  0  0  0  0  0  0  0
   13.0793   45.2708   18.3023 O   0  0  0  0  0  0  0  0  0  0  0  0
   12.1863   47.6107   19.0947 O   0  0  0  0  0  0  0  0  0  0  0  0
   13.5630   47.8461   19.2960 C   0  0  2  0  0  0  0  0  0  0  0  0
   14.2851   47.7892   17.9467 C   0  0  1  0  0  0  0  0  0  0  0  0
   13.8356   48.8544   17.1372 O   0  0  0  0  0  0  0  0  0  0  0  0
   14.9567   49.5447   16.6300 C   0  0  1  0  0  0  0  0  0  0  0  0
   14.9725   50.9076   17.1766 N   0  0  0  0  0  0  0  0  0  0  0  0
   15.6317   51.9702   16.6956 C   0  0  0  0  0  0  0  0  0  0  0  0
   16.5077   52.0029   15.6613 N   0  0  0  0  0  0  0  0  0  0  0  0
   17.0466   53.2111   15.3158 C   0  0  0  0  0  0  0  0  0  0  0  0
   16.6908   54.3509   15.9914 N   0  0  0  0  0  0  0  0  0  0  0  0
   15.7955   54.3171   17.0231 C   0  0  0  0  0  0  0  0  0  0  0  0
   15.4032   55.5200   17.6837 N   0  0  0  0  0  0  0  0  0  0  0  0
   15.2673   53.0808   17.3765 C   0  0  0  0  0  0  0  0  0  0  0  0
   14.3512   52.7802   18.3140 N   0  0  0  0  0  0  0  0  0  0  0  0
   14.1874   51.4384   18.1539 C   0  0  0  0  0  0  0  0  0  0  0  0
   16.2404   48.7786   16.9697 C   0  0  2  0  0  0  0  0  0  0  0  0
   16.6598   48.0173   15.8646 O   0  0  0  0  0  0  0  0  0  0  0  0
   15.8078   47.8858   18.1114 C   0  0  2  0  0  0  0  0  0  0  0  0
   16.4460   46.6291   18.1103 O   0  0  0  0  0  0  0  0  0  0  0  0
   12.1008   45.5185   15.1127 N   0  0  0  0  0  0  0  0  0  0  0  0
   10.8485   45.9856   15.7125 C   0  0  1  0  0  0  0  0  0  0  0  0
    9.7264   46.0135   14.6634 C   0  0  2  0  0  0  0  0  0  0  0  0
    9.3153   47.4224   14.3424 C   0  0  0  0  0  0  0  0  0  0  0  0
    9.6037   48.1547   13.2057 C   0  0  0  0  0  0  0  0  0  0  0  0
    9.0413   49.3948   13.3818 C   0  0  0  0  0  0  0  0  0  0  0  0
   10.2972   47.8223   12.0407 C   0  0  0  0  0  0  0  0  0  0  0  0
    8.5901   48.2773   15.1679 C   0  0  0  0  0  0  0  0  0  0  0  0
    8.4232   49.4805   14.5728 N   0  0  0  0  0  0  0  0  0  0  0  0
    9.1313   50.3869   12.4064 C   0  0  0  0  0  0  0  0  0  0  0  0
   10.3932   48.8009   11.0344 C   0  0  0  0  0  0  0  0  0  0  0  0
    9.8168   50.0785   11.2181 C   0  0  0  0  0  0  0  0  0  0  0  0
   10.4454   45.1139   16.8727 C   0  0  0  0  0  0  0  0  0  0  0  0
   10.1309   43.9097   16.6674 O   0  0  0  0  0  0  0  0  0  0  0  0
   10.4671   45.6325   18.1694 O   0  0  0  0  0  0  0  0  0  0  0  0
   11.1251   45.8410   21.0450 H   0  0  0  0  0  0  0  0  0  0  0  0
   13.9731   47.0575   19.9650 H   0  0  0  0  0  0  0  0  0  0  0  0
   13.7706   48.8474   19.7445 H   0  0  0  0  0  0  0  0  0  0  0  0
   14.0104   46.8377   17.4392 H   0  0  0  0  0  0  0  0  0  0  0  0
   14.8496   49.6058   15.5243 H   0  0  0  0  0  0  0  0  0  0  0  0
   17.7531   53.2695   14.4986 H   0  0  0  0  0  0  0  0  0  0  0  0
   14.4774   55.9616   17.4913 H   0  0  0  0  0  0  0  0  0  0  0  0
   16.0600   55.9969   18.3407 H   0  0  0  0  0  0  0  0  0  0  0  0
   13.4821   50.8662   18.7383 H   0  0  0  0  0  0  0  0  0  0  0  0
   17.0646   49.4565   17.2951 H   0  0  0  0  0  0  0  0  0  0  0  0
   16.8750   48.6616   15.1424 H   0  0  0  0  0  0  0  0  0  0  0  0
   16.0642   48.3929   19.0669 H   0  0  0  0  0  0  0  0  0  0  0  0
   16.0259   46.0569   18.8047 H   0  0  0  0  0  0  0  0  0  0  0  0
   12.8790   45.6687   15.7967 H   0  0  0  0  0  0  0  0  0  0  0  0
   12.0380   44.4910   14.9210 H   0  0  0  0  0  0  0  0  0  0  0  0
   11.0066   47.0215   16.0895 H   0  0  0  0  0  0  0  0  0  0  0  0
    8.8386   45.4704   15.0561 H   0  0  0  0  0  0  0  0  0  0  0  0
   10.0537   45.4909   13.7386 H   0  0  0  0  0  0  0  0  0  0  0  0
   10.7432   46.8449   11.9046 H   0  0  0  0  0  0  0  0  0  0  0  0
    8.2076   48.0314   16.1498 H   0  0  0  0  0  0  0  0  0  0  0  0
    7.9142   50.3060   14.9627 H   0  0  0  0  0  0  0  0  0  0  0  0
    8.6815   51.3612   12.5545 H   0  0  0  0  0  0  0  0  0  0  0  0
   10.9103   48.5733   10.1123 H   0  0  0  0  0  0  0  0  0  0  0  0
    9.8995   50.8233   10.4373 H   0  0  0  0  0  0  0  0  0  0  0  0
  1  2  1  1
  1  3  2  0
  1  4  1  0
  4  5  1  0
  6  5  1  0
  6  7  1  0
  7  8  1  0
  8  9  1  0
  9 10  1  0
 10 11  2  0
 11 12  1  0
 12 13  2  0
 13 14  1  0
 14 15  1  0
 10 16  1  0
 14 16  2  0
 16 17  1  0
  9 18  1  0
 17 18  2  0
  8 19  1  0
 19 20  1  0
  6 21  1  0
 19 21  1  0
 21 22  1  0
 24 23  1  0
 24 25  1  0
 25 26  1  0
 26 27  1  0
 27 28  1  0
 27 29  2  0
 26 30  2  0
 28 31  1  0
 30 31  1  0
 28 32  2  0
 29 33  1  0
 32 34  1  0
 33 34  2  0
 24 35  1  0
 35 36  2  0
  1 37  1  0
 35 37  1  0
  2 38  1  0
  5 39  1  1
  5 40  1  0
  6 41  1  6
  8 42  1  6
 12 43  1  0
 15 44  1  0
 15 45  1  0
 18 46  1  0
 19 47  1  1
 20 48  1  0
 21 49  1  1
 22 50  1  0
 23 51  1  0
 23 52  1  0
 24 53  1  1
 25 54  1  1
 25 55  1  0
 29 56  1  0
 30 57  1  0
 31 58  1  0
 32 59  1  0
 33 60  1  0
 34 61  1  0
M  END
