7X9K_8OG_A_202
     RDKit          3D

 24 26  0  0  0  0  0  0  0  0999 V2000
   -9.1549    2.4136   21.4514 O   0  0  0  0  0  0  0  0  0  0  0  0
  -10.2290    1.1130   21.6051 P   0  0  1  0  0  5  0  0  0  0  0  0
  -11.5051    1.6760   22.2038 O   0  0  0  0  0  0  0  0  0  0  0  0
  -10.5836    0.4576   20.1094 O   0  0  0  0  0  0  0  0  0  0  0  0
   -9.5082    0.0152   22.6684 O   0  0  0  0  0  0  0  0  0  0  0  0
   -9.3032    0.5992   23.9218 C   0  0  0  0  0  0  0  0  0  0  0  0
   -8.6493   -0.3640   24.8923 C   0  0  1  0  0  0  0  0  0  0  0  0
   -7.3714   -0.7205   24.5028 O   0  0  0  0  0  0  0  0  0  0  0  0
   -8.5266    0.3031   26.2428 C   0  0  1  0  0  0  0  0  0  0  0  0
   -9.6319    0.1583   27.0466 O   0  0  0  0  0  0  0  0  0  0  0  0
   -7.3361   -0.4534   26.7835 C   0  0  0  0  0  0  0  0  0  0  0  0
   -6.5215   -0.6627   25.5712 C   0  0  2  0  0  0  0  0  0  0  0  0
   -5.4201    0.2515   25.3994 N   0  0  0  0  0  0  0  0  0  0  0  0
   -5.2151    1.2154   24.4888 C   0  0  0  0  0  0  0  0  0  0  0  0
   -4.0414    1.8377   24.6953 N   0  0  0  0  0  0  0  0  0  0  0  0
   -3.4851    1.2497   25.7705 C   0  0  0  0  0  0  0  0  0  0  0  0
   -2.3009    1.4348   26.4689 C   0  0  0  0  0  0  0  0  0  0  0  0
   -1.5264    2.3408   26.0568 O   0  0  0  0  0  0  0  0  0  0  0  0
   -2.0054    0.6700   27.5408 N   0  0  0  0  0  0  0  0  0  0  0  0
   -2.8492   -0.2897   27.9593 C   0  0  0  0  0  0  0  0  0  0  0  0
   -2.5830   -1.1234   29.0852 N   0  0  0  0  0  0  0  0  0  0  0  0
   -4.0002   -0.4765   27.2881 N   0  0  0  0  0  0  0  0  0  0  0  0
   -4.3434    0.2641   26.2067 C   0  0  0  0  0  0  0  0  0  0  0  0
   -6.0014    1.5081   23.5652 O   0  0  0  0  0  0  0  0  0  0  0  0
  2  1  1  6
  2  3  2  0
  2  4  1  0
  2  5  1  0
  6  5  1  1
  7  6  1  0
  7  8  1  6
  7  9  1  0
  9 10  1  1
  9 11  1  0
  8 12  1  0
 11 12  1  6
 12 13  1  6
 13 14  1  0
 14 15  1  0
 15 16  1  0
 16 17  1  0
 17 18  2  0
 17 19  1  0
 19 20  1  0
 20 21  1  0
 20 22  2  0
 13 23  1  0
 16 23  2  0
 22 23  1  0
 14 24  2  0
M  END
$$$$
