7XPO_UPG_A_402
     RDKit          3D

 60 62  0  0  0  0  0  0  0  0999 V2000
  -18.8482  -27.0145  -26.3997 N   0  0  0  0  0  4  0  0  0  0  0  0
  -18.8921  -28.0215  -25.4863 C   0  0  0  0  0  0  0  0  0  0  0  0
  -17.9248  -28.9644  -25.4723 N   0  0  0  0  0  4  0  0  0  0  0  0
  -16.9205  -28.9316  -26.3472 C   0  0  0  0  0  0  0  0  0  0  0  0
  -16.7956  -27.9072  -27.2721 C   0  0  0  0  0  0  0  0  0  0  0  0
  -17.8135  -26.9883  -27.2874 C   0  0  0  0  0  0  0  0  0  0  0  0
  -19.8037  -28.0929  -24.6693 O   0  0  0  0  0  0  0  0  0  0  0  0
  -16.0008  -29.8706  -26.2137 O   0  0  0  0  0  0  0  0  0  0  0  0
  -19.8744  -26.0996  -26.4785 C   0  0  1  0  0  0  0  0  0  0  0  0
  -19.7147  -24.7842  -25.6277 C   0  0  2  0  0  0  0  0  0  0  0  0
  -20.3660  -25.1391  -24.3369 O   0  0  0  0  0  0  0  0  0  0  0  0
  -20.3285  -23.8048  -26.2342 C   0  0  1  0  0  0  0  0  0  0  0  0
  -20.1171  -24.1612  -27.8142 C   0  0  2  0  0  0  0  0  0  0  0  0
  -19.8710  -25.4640  -27.8220 O   0  0  0  0  0  0  0  0  0  0  0  0
  -21.7929  -23.6946  -26.0831 O   0  0  0  0  0  0  0  0  0  0  0  0
  -18.9805  -23.3260  -28.4247 C   0  0  0  0  0  0  0  0  0  0  0  0
  -18.8487  -22.1662  -27.6317 O   0  0  0  0  0  0  0  0  0  0  0  0
  -17.9667  -22.1548  -26.3269 P   0  0  2  0  0  5  0  0  0  0  0  0
  -18.7459  -22.8056  -25.2009 O   0  0  0  0  0  0  0  0  0  0  0  0
  -17.5191  -20.7395  -26.0843 O   0  0  0  0  0  0  0  0  0  0  0  0
  -16.7878  -23.2079  -26.6165 O   0  0  0  0  0  0  0  0  0  0  0  0
  -16.7172  -24.4499  -27.6702 P   0  0  2  0  0  5  0  0  0  0  0  0
  -16.0377  -25.6065  -27.0041 O   0  0  0  0  0  0  0  0  0  0  0  0
  -16.6462  -23.8824  -28.9958 O   0  0  0  0  0  0  0  0  0  0  0  0
  -18.3047  -24.9274  -27.4117 O   0  0  0  0  0  0  0  0  0  0  0  0
  -18.6835  -25.5711  -26.2197 C   0  0  2  0  0  0  0  0  0  0  0  0
  -17.8198  -25.2373  -25.0605 C   0  0  1  0  0  0  0  0  0  0  0  0
  -16.4659  -25.4534  -25.4727 C   0  0  2  0  0  0  0  0  0  0  0  0
  -16.2114  -26.9019  -25.5551 C   0  0  1  0  0  0  0  0  0  0  0  0
  -17.1401  -27.5592  -26.6230 C   0  0  1  0  0  0  0  0  0  0  0  0
  -17.1703  -28.9788  -26.4251 C   0  0  0  0  0  0  0  0  0  0  0  0
  -17.9337  -23.8486  -24.5808 O   0  0  0  0  0  0  0  0  0  0  0  0
  -15.5261  -24.7861  -24.5437 O   0  0  0  0  0  0  0  0  0  0  0  0
  -14.8380  -27.0892  -25.8920 O   0  0  0  0  0  0  0  0  0  0  0  0
  -18.5680  -27.0284  -26.4503 O   0  0  0  0  0  0  0  0  0  0  0  0
  -17.1740  -29.5979  -27.6918 O   0  0  0  0  0  0  0  0  0  0  0  0
  -17.9625  -29.6873  -24.8050 H   0  0  0  0  0  0  0  0  0  0  0  0
  -15.9869  -27.8400  -27.9097 H   0  0  0  0  0  0  0  0  0  0  0  0
  -17.7956  -26.2443  -28.0023 H   0  0  0  0  0  0  0  0  0  0  0  0
  -20.7132  -26.6910  -26.1758 H   0  0  0  0  0  0  0  0  0  0  0  0
  -18.7042  -24.4604  -25.4896 H   0  0  0  0  0  0  0  0  0  0  0  0
  -21.2774  -25.4267  -24.5030 H   0  0  0  0  0  0  0  0  0  0  0  0
  -19.9307  -22.8983  -25.8281 H   0  0  0  0  0  0  0  0  0  0  0  0
  -20.9685  -23.9248  -28.4177 H   0  0  0  0  0  0  0  0  0  0  0  0
  -22.2154  -24.4933  -26.4360 H   0  0  0  0  0  0  0  0  0  0  0  0
  -19.2222  -23.0570  -29.4317 H   0  0  0  0  0  0  0  0  0  0  0  0
  -18.0662  -23.8815  -28.4436 H   0  0  0  0  0  0  0  0  0  0  0  0
  -18.2936  -20.1792  -25.9196 H   0  0  0  0  0  0  0  0  0  0  0  0
  -15.7374  -23.5954  -29.1765 H   0  0  0  0  0  0  0  0  0  0  0  0
  -19.6758  -25.2485  -25.9829 H   0  0  0  0  0  0  0  0  0  0  0  0
  -18.1331  -25.8573  -24.2466 H   0  0  0  0  0  0  0  0  0  0  0  0
  -16.3105  -25.0237  -26.4402 H   0  0  0  0  0  0  0  0  0  0  0  0
  -16.4229  -27.3696  -24.6163 H   0  0  0  0  0  0  0  0  0  0  0  0
  -16.7673  -27.3269  -27.5987 H   0  0  0  0  0  0  0  0  0  0  0  0
  -18.0535  -29.2510  -25.8859 H   0  0  0  0  0  0  0  0  0  0  0  0
  -16.3166  -29.2926  -25.8617 H   0  0  0  0  0  0  0  0  0  0  0  0
  -17.6598  -23.2399  -25.2846 H   0  0  0  0  0  0  0  0  0  0  0  0
  -15.6386  -25.1516  -23.6523 H   0  0  0  0  0  0  0  0  0  0  0  0
  -14.6530  -26.6631  -26.7435 H   0  0  0  0  0  0  0  0  0  0  0  0
  -17.9517  -29.3057  -28.1923 H   0  0  0  0  0  0  0  0  0  0  0  0
  1  2  4  0
  2  3  4  0
  3  4  4  0
  4  5  4  0
  1  6  4  0
  5  6  4  0
  2  7  2  0
  4  8  2  0
  9  1  1  0
  9 10  1  0
 10 11  1  0
 10 12  1  0
 12 13  1  0
  9 14  1  0
 13 14  1  0
 12 15  1  0
 13 16  1  0
 16 17  1  0
 18 17  1  6
 18 19  2  0
 18 20  1  0
 18 21  1  0
 22 21  1  1
 22 23  2  0
 22 24  1  0
 22 25  1  0
 26 25  1  0
 26 27  1  0
 27 28  1  0
 28 29  1  0
 29 30  1  0
 30 31  1  0
 27 32  1  0
 28 33  1  0
 29 34  1  0
 26 35  1  0
 30 35  1  0
 31 36  1  0
  3 37  1  0
  5 38  1  0
  6 39  1  0
  9 40  1  1
 10 41  1  1
 11 42  1  0
 12 43  1  6
 13 44  1  6
 15 45  1  0
 16 46  1  0
 16 47  1  0
 20 48  1  0
 24 49  1  0
 26 50  1  1
 27 51  1  1
 28 52  1  6
 29 53  1  1
 30 54  1  6
 31 55  1  0
 31 56  1  0
 32 57  1  0
 33 58  1  0
 34 59  1  0
 36 60  1  0
M  CHG  2   1   1   3   1
M  END
