1Q1G_MTI_F_306
     RDKit          3D

 37 39  0  0  0  0  0  0  0  0999 V2000
   36.6078   12.0279   91.3117 C   0  0  2  0  0  0  0  0  0  0  0  0
   36.2188   10.5571   92.3152 S   0  0  0  0  0  0  0  0  0  0  0  0
   35.2998    9.6661   91.0069 C   0  0  2  0  0  0  0  0  0  0  0  0
   33.7993   10.0180   91.0359 C   0  0  1  0  0  0  0  0  0  0  0  0
   33.5084   11.2912   90.3634 N   0  0  1  0  0  4  0  0  0  0  0  0
   31.6863    9.7149   89.9514 C   0  0  2  0  0  0  0  0  0  0  0  0
   30.7188    9.5735   90.9614 O   0  0  0  0  0  0  0  0  0  0  0  0
   32.9571    8.9649   90.3295 C   0  0  2  0  0  0  0  0  0  0  0  0
   32.7020    7.8743   91.1766 O   0  0  0  0  0  0  0  0  0  0  0  0
   32.1300   11.1886   89.8435 C   0  0  2  0  0  0  0  0  0  0  0  0
   32.0371   11.6896   88.4204 C   0  0  0  0  0  0  0  0  0  0  0  0
   32.5503   11.0863   87.2696 C   0  0  0  0  0  0  0  0  0  0  0  0
   32.2844   11.8414   86.1756 N   0  0  0  0  0  0  0  0  0  0  0  0
   31.6122   12.9140   86.6291 C   0  0  0  0  0  0  0  0  0  0  0  0
   31.1093   13.9985   85.9215 C   0  0  0  0  0  0  0  0  0  0  0  0
   31.2463   14.0829   84.6719 O   0  0  0  0  0  0  0  0  0  0  0  0
   30.4588   14.9762   86.6226 N   0  0  0  0  0  0  0  0  0  0  0  0
   30.3076   14.8904   87.9845 C   0  0  0  0  0  0  0  0  0  0  0  0
   30.8062   13.8201   88.6737 N   0  0  0  0  0  0  0  0  0  0  0  0
   31.4487   12.8525   87.9769 C   0  0  0  0  0  0  0  0  0  0  0  0
   36.7786   12.9055   91.9693 H   0  0  0  0  0  0  0  0  0  0  0  0
   35.7841   12.2443   90.6019 H   0  0  0  0  0  0  0  0  0  0  0  0
   37.5332   11.8329   90.7323 H   0  0  0  0  0  0  0  0  0  0  0  0
   35.4364    8.5691   91.1186 H   0  0  0  0  0  0  0  0  0  0  0  0
   35.7354    9.9533   90.0259 H   0  0  0  0  0  0  0  0  0  0  0  0
   33.4632   10.0828   92.0968 H   0  0  0  0  0  0  0  0  0  0  0  0
   33.5780   12.0806   91.0486 H   0  0  0  0  0  0  0  0  0  0  0  0
   34.1966   11.4612   89.5916 H   0  0  0  0  0  0  0  0  0  0  0  0
   31.2879    9.3080   88.9913 H   0  0  0  0  0  0  0  0  0  0  0  0
   29.9556   10.1541   90.7036 H   0  0  0  0  0  0  0  0  0  0  0  0
   33.4747    8.6248   89.4007 H   0  0  0  0  0  0  0  0  0  0  0  0
   32.3101    7.1630   90.6057 H   0  0  0  0  0  0  0  0  0  0  0  0
   31.4581   11.8181   90.4725 H   0  0  0  0  0  0  0  0  0  0  0  0
   33.0908   10.1491   87.2380 H   0  0  0  0  0  0  0  0  0  0  0  0
   32.5520   11.6311   85.1886 H   0  0  0  0  0  0  0  0  0  0  0  0
   30.0689   15.8044   86.1187 H   0  0  0  0  0  0  0  0  0  0  0  0
   29.7901   15.6751   88.5204 H   0  0  0  0  0  0  0  0  0  0  0  0
  1  2  1  0
  2  3  1  0
  4  3  1  0
  4  5  1  0
  6  7  1  0
  4  8  1  0
  6  8  1  0
  8  9  1  0
  5 10  1  0
  6 10  1  0
 10 11  1  0
 11 12  2  0
 12 13  1  0
 13 14  1  0
 14 15  1  0
 15 16  2  0
 15 17  1  0
 17 18  1  0
 18 19  2  0
 11 20  1  0
 14 20  2  0
 19 20  1  0
  1 21  1  1
  1 22  1  0
  1 23  1  0
  3 24  1  1
  3 25  1  0
  4 26  1  1
  5 27  1  1
  5 28  1  0
  6 29  1  6
  7 30  1  0
  8 31  1  6
  9 32  1  0
 10 33  1  1
 12 34  1  0
 13 35  1  0
 17 36  1  0
 18 37  1  0
M  CHG  1   5   1
M  END
