7C6P_SQH_A_501
     RDKit          3D

 31 33  0  0  0  0  0  0  0  0999 V2000
    2.4052  -17.9727   -9.3784 C   0  0  0  0  0  0  0  0  0  0  0  0
    4.0221  -14.0504   -8.7779 C   0  0  0  0  0  0  0  0  0  0  0  0
    3.9953  -14.7032  -10.0115 C   0  0  0  0  0  0  0  0  0  0  0  0
    4.5293  -14.1180  -11.2556 C   0  0  0  0  0  0  0  0  0  0  0  0
    3.8483  -13.1172  -11.9403 C   0  0  0  0  0  0  0  0  0  0  0  0
    4.4103  -12.6189  -13.1023 C   0  0  0  0  0  0  0  0  0  0  0  0
    5.7061  -13.1607  -13.5794 C   0  0  0  0  0  0  0  0  0  0  0  0
    6.3484  -14.1547  -12.8628 C   0  0  0  0  0  0  0  0  0  0  0  0
    5.7438  -14.6320  -11.7061 C   0  0  0  0  0  0  0  0  0  0  0  0
    2.9524  -16.6337   -9.1375 C   0  0  0  0  0  0  0  0  0  0  0  0
    2.9105  -16.0461   -7.7871 C   0  0  0  0  0  0  0  0  0  0  0  0
    2.3471  -16.7849   -6.7353 C   0  0  0  0  0  0  0  0  0  0  0  0
    1.8172  -18.0712   -6.9630 C   0  0  0  0  0  0  0  0  0  0  0  0
    1.8279  -18.6836   -8.2230 C   0  0  0  0  0  0  0  0  0  0  0  0
    3.4952  -14.6780   -7.6477 C   0  0  0  0  0  0  0  0  0  0  0  0
    3.4810  -15.9526  -10.1728 O   0  0  0  0  0  3  0  0  0  0  0  0
    3.7788  -11.6382  -13.7998 O   0  0  0  0  0  0  0  0  0  0  0  0
    6.2706  -12.6731  -14.7113 O   0  0  0  0  0  0  0  0  0  0  0  0
    3.5175  -14.0876   -6.5475 O   0  0  0  0  0  0  0  0  0  0  0  0
    1.3249  -19.9221   -8.4395 O   0  0  0  0  0  0  0  0  0  0  0  0
    2.4409  -18.5107  -10.6283 O   0  0  0  0  0  0  0  0  0  0  0  0
    4.4307  -13.1059   -8.7015 H   0  0  0  0  0  0  0  0  0  0  0  0
    2.9471  -12.7556  -11.5907 H   0  0  0  0  0  0  0  0  0  0  0  0
    7.2549  -14.5328  -13.1797 H   0  0  0  0  0  0  0  0  0  0  0  0
    6.2042  -15.3833  -11.1689 H   0  0  0  0  0  0  0  0  0  0  0  0
    2.3205  -16.3823   -5.7855 H   0  0  0  0  0  0  0  0  0  0  0  0
    1.4040  -18.5834   -6.1680 H   0  0  0  0  0  0  0  0  0  0  0  0
    2.9604  -11.2989  -13.4947 H   0  0  0  0  0  0  0  0  0  0  0  0
    5.8376  -11.9999  -15.1984 H   0  0  0  0  0  0  0  0  0  0  0  0
    1.3520  -20.2951   -9.2986 H   0  0  0  0  0  0  0  0  0  0  0  0
    2.8169  -18.0258  -11.3365 H   0  0  0  0  0  0  0  0  0  0  0  0
  2  3  4  0
  3  4  1  0
  4  5  4  0
  5  6  4  0
  6  7  4  0
  7  8  4  0
  8  9  4  0
  4  9  4  0
  1 10  4  0
 10 11  4  0
 11 12  4  0
 12 13  4  0
  1 14  4  0
 13 14  4  0
  2 15  4  0
 11 15  4  0
  3 16  4  0
 10 16  4  0
  6 17  1  0
  7 18  1  0
 15 19  2  0
 14 20  1  0
  1 21  1  0
  2 22  1  0
  5 23  1  0
  8 24  1  0
  9 25  1  0
 12 26  1  0
 13 27  1  0
 17 28  1  0
 18 29  1  0
 20 30  1  0
 21 31  1  0
M  CHG  1  16   1
M  END
