8AUH_L9I_B_403
     RDKit          3D

 11 10  0  0  0  0  0  0  0  0999 V2000
    7.4941   21.7074  -15.6367 N   0  0  0  0  0  0  0  0  0  0  0  0
    9.6569   20.9902  -16.3716 C   0  0  0  0  0  0  0  0  0  0  0  0
   10.2841   20.5811  -17.2938 O   0  0  0  0  0  0  0  0  0  0  0  0
    7.6610   21.1860  -18.0072 C   0  0  0  0  0  0  0  0  0  0  0  0
    7.3218   19.6478  -19.7397 C   0  0  0  0  0  0  0  0  0  0  0  0
    7.5103   18.1489  -19.9519 C   0  0  0  0  0  0  0  0  0  0  0  0
   10.2610   21.1399  -14.9815 C   0  0  0  0  0  0  0  0  0  0  0  0
    8.2074   21.3453  -16.5990 C   0  0  0  0  0  0  0  0  0  0  0  0
    7.2928   19.9009  -18.3627 O   0  0  0  0  0  0  0  0  0  0  0  0
    6.1569   22.0001  -15.8735 O   0  0  0  0  0  0  0  0  0  0  0  0
    7.5722   22.0850  -18.7864 O   0  0  0  0  0  0  0  0  0  0  0  0
  2  3  2  0
  5  6  1  0
  2  7  1  0
  1  8  2  0
  4  8  1  0
  2  8  1  0
  4  9  1  0
  5  9  1  0
  1 10  1  0
  4 11  2  0
M  END
