7NA4_1I9_A_201
     RDKit          3D

 38 43  0  0  0  0  0  0  0  0999 V2000
   -4.7651    7.5880    2.2640 C   0  0  0  0  0  0  0  0  0  0  0  0
   -4.6706    8.7384    1.3092 C   0  0  1  0  0  0  0  0  0  0  0  0
   -5.7156    8.5908    0.2484 C   0  0  0  0  0  0  0  0  0  0  0  0
   -5.9042    9.8283   -0.5994 C   0  0  0  0  0  0  0  0  0  0  0  0
   -6.2380   10.9648    0.4115 C   0  0  1  0  0  0  0  0  0  0  0  0
   -4.9559   11.2110    1.1302 C   0  0  0  0  0  0  0  0  0  0  0  0
   -4.8100   10.0275    2.1154 C   0  0  0  0  0  0  0  0  0  0  0  0
   -6.8296   12.1300   -0.3103 C   0  0  1  0  0  0  0  0  0  0  0  0
   -8.3087   11.3937   -2.1174 C   0  0  0  0  0  0  0  0  0  0  0  0
   -9.4125   10.2223   -4.4153 C   0  0  0  0  0  0  0  0  0  0  0  0
  -10.2325   10.8403   -3.5108 C   0  0  0  0  0  0  0  0  0  0  0  0
   -9.6699   11.4073   -2.3915 C   0  0  0  0  0  0  0  0  0  0  0  0
   -9.2662   12.4208   -0.4534 C   0  0  0  0  0  0  0  0  0  0  0  0
   -9.9713   11.3968    2.2514 C   0  0  0  0  0  0  0  0  0  0  0  0
  -11.0333   10.6070    3.0329 C   0  0  0  0  0  0  0  0  0  0  0  0
   -9.8634   15.7033    0.5123 C   0  0  0  0  0  0  0  0  0  0  0  0
  -11.4151    8.8699   -7.0557 C   0  0  0  0  0  0  0  0  0  0  0  0
   -6.0932   10.6235   -3.0115 C   0  0  0  0  0  0  0  0  0  0  0  0
   -5.2209   11.7224   -3.0273 C   0  0  0  0  0  0  0  0  0  0  0  0
   -3.8600   11.5721   -2.8969 C   0  0  0  0  0  0  0  0  0  0  0  0
   -3.3104   10.3167   -2.7447 C   0  0  0  0  0  0  0  0  0  0  0  0
   -5.4694    9.3685   -2.8522 C   0  0  0  0  0  0  0  0  0  0  0  0
   -5.7376   12.7619   -1.2015 C   0  0  0  0  0  0  0  0  0  0  0  0
   -8.0964   12.0262   -0.9088 N   0  0  0  0  0  0  0  0  0  0  0  0
   -7.5321   10.7694   -3.0491 C   0  0  0  0  0  0  0  0  0  0  0  0
   -8.1058   10.2005   -4.1697 N   0  0  0  0  0  0  0  0  0  0  0  0
  -10.2450   12.0275   -1.3904 N   0  0  0  0  0  0  0  0  0  0  0  0
   -9.8089   13.1212    0.7062 C   0  0  2  0  0  0  0  0  0  0  0  0
  -10.6735   12.1973    1.3993 O   0  0  0  0  0  0  0  0  0  0  0  0
  -10.5777   14.3471    0.6189 C   0  0  1  0  0  0  0  0  0  0  0  0
  -10.7266   15.3720    1.6804 C   0  0  0  0  0  0  0  0  0  0  0  0
   -9.9958    9.6173   -5.6024 C   0  0  0  0  0  0  0  0  0  0  0  0
  -11.3144    9.4829   -5.8438 N   0  0  0  0  0  0  0  0  0  0  0  0
  -12.5343    8.5938   -7.5813 O   0  0  0  0  0  0  0  0  0  0  0  0
  -10.2128    8.6488   -7.5161 O   0  0  0  0  0  0  0  0  0  0  0  0
   -9.3421    9.0933   -6.6523 N   0  0  0  0  0  0  0  0  0  0  0  0
   -2.8728   13.0248   -2.9323 Cl  0  0  0  0  0  0  0  0  0  0  0  0
   -4.1403    9.2584   -2.7282 N   0  0  0  0  0  0  0  0  0  0  0  0
  2  1  1  1
  2  3  1  0
  3  4  1  0
  5  4  1  6
  5  6  1  0
  6  7  1  0
  2  7  1  0
  5  8  1  0
 10 11  2  0
 11 12  1  0
  9 12  2  0
 14 15  1  0
 18 19  2  0
 19 20  1  0
 20 21  2  0
 18 22  1  0
  8 23  1  6
  9 24  1  0
 13 24  1  0
  8 24  1  0
 18 25  1  0
  9 25  1  0
 10 26  1  0
 25 26  2  0
 12 27  1  0
 13 27  2  0
 13 28  1  0
 28 29  1  6
 14 29  1  0
 30 16  1  6
 28 30  1  0
 16 31  1  0
 30 31  1  0
 10 32  1  0
 17 33  1  0
 32 33  1  0
 17 34  2  0
 17 35  1  0
 35 36  1  0
 32 36  2  0
 20 37  1  0
 21 38  1  0
 22 38  2  0
M  END
$$$$
