7C0U_FGO_B_506
     RDKit          3D

 43 48  0  0  0  0  0  0  0  0999 V2000
   34.5652    4.0335   31.3511 C   0  0  1  0  0  0  0  0  0  0  0  0
   36.5668    4.3281   32.4411 C   0  0  1  0  0  0  0  0  0  0  0  0
   38.6499    5.4914   32.2947 C   0  0  0  0  0  0  0  0  0  0  0  0
   39.3235    6.6365   32.8887 C   0  0  0  0  0  0  0  0  0  0  0  0
   37.3422    6.4059   33.7563 C   0  0  0  0  0  0  0  0  0  0  0  0
   40.6605    6.9303   32.3747 C   0  0  0  0  0  0  0  0  0  0  0  0
   40.4889    5.0762   30.9427 C   0  0  0  0  0  0  0  0  0  0  0  0
   35.6345    3.8246   33.5209 C   0  0  1  0  0  0  0  0  0  0  0  0
   34.3195    3.6010   32.7710 C   0  0  2  0  0  0  0  0  0  0  0  0
   36.1155    2.5165   34.0248 C   0  0  0  0  0  0  0  0  0  0  0  0
   33.7576    7.1166   28.0424 O   0  0  0  0  0  0  0  0  0  0  0  0
   33.1118    6.9968   29.3988 P   0  0  1  0  0  0  0  0  0  0  0  0
   32.7951    8.4176   30.1292 O   0  0  0  0  0  0  0  0  0  0  0  0
   31.7064    6.2675   29.1913 O   0  0  0  0  0  0  0  0  0  0  0  0
   31.5221    4.8586   29.3706 C   0  0  2  0  0  0  0  0  0  0  0  0
   30.3420    4.5235   28.4969 C   0  0  1  0  0  0  0  0  0  0  0  0
   30.4653    3.1365   27.8741 C   0  0  0  0  0  0  0  0  0  0  0  0
   29.6220    2.1477   28.4804 O   0  0  0  0  0  0  0  0  0  0  0  0
   29.2128    4.6890   29.3591 O   0  0  0  0  0  0  0  0  0  0  0  0
   29.6152    4.8178   30.7122 C   0  0  1  0  0  0  0  0  0  0  0  0
   28.6802    4.0341   31.5709 N   0  0  0  0  0  0  0  0  0  0  0  0
   27.8811    2.9791   31.1783 C   0  0  0  0  0  0  0  0  0  0  0  0
   26.9886    2.4019   32.1148 C   0  0  0  0  0  0  0  0  0  0  0  0
   26.9720    2.8768   33.4425 C   0  0  0  0  0  0  0  0  0  0  0  0
   26.2064    2.3998   34.3600 O   0  0  0  0  0  0  0  0  0  0  0  0
   27.7521    3.9167   33.7856 N   0  0  0  0  0  0  0  0  0  0  0  0
   28.5819    4.4907   32.8953 C   0  0  0  0  0  0  0  0  0  0  0  0
   29.3090    5.4471   33.2315 O   0  0  0  0  0  0  0  0  0  0  0  0
   31.0867    4.4289   30.7609 C   0  0  2  0  0  0  0  0  0  0  0  0
   31.7577    5.1317   31.8291 O   0  0  0  0  0  0  0  0  0  0  0  0
   34.0062    6.0520   30.3124 O   0  0  0  0  0  0  0  0  0  0  0  0
   33.4253    4.9126   30.8957 C   0  0  0  0  0  0  0  0  0  0  0  0
   33.9574    2.1724   32.8454 C   0  0  0  0  0  0  0  0  0  0  0  0
   35.1931    1.4844   33.4037 C   0  0  1  0  0  0  0  0  0  0  0  0
   35.8924    0.8719   32.3504 O   0  0  0  0  0  0  0  0  0  0  0  0
   34.8337    0.5115   34.3992 O   0  0  0  0  0  0  0  0  0  0  0  0
   35.7309    4.8294   31.4225 O   0  0  0  0  0  0  0  0  0  0  0  0
   37.4902    5.4015   32.8702 N   0  0  0  0  0  0  0  0  0  0  0  0
   38.4692    7.1741   33.7652 N   0  0  0  0  0  0  0  0  0  0  0  0
   39.2488    4.7279   31.3611 N   0  0  0  0  0  0  0  0  0  0  0  0
   41.0513    4.3005   29.9887 N   0  0  0  0  0  0  0  0  0  0  0  0
   41.1601    6.1181   31.4331 N   0  0  0  0  0  0  0  0  0  0  0  0
   41.3078    7.9043   32.8387 O   0  0  0  0  0  0  0  0  0  0  0  0
  3  4  2  0
  4  6  1  0
  2  8  1  0
  8  9  1  0
  1  9  1  0
  8 10  1  6
 11 12  2  0
 12 13  1  1
 12 14  1  0
 15 14  1  1
 15 16  1  0
 16 17  1  1
 17 18  1  0
 16 19  1  0
 19 20  1  0
 20 21  1  1
 21 22  1  0
 22 23  2  0
 23 24  1  0
 24 25  2  0
 24 26  1  0
 26 27  1  0
 21 27  1  0
 27 28  2  0
 20 29  1  0
 15 29  1  0
 29 30  1  1
 12 31  1  0
  1 32  1  1
 31 32  1  0
  9 33  1  6
 10 34  1  0
 33 34  1  0
 34 35  1  6
 34 36  1  0
  2 37  1  0
  1 37  1  0
  2 38  1  1
  3 38  1  0
  5 38  1  0
  4 39  1  0
  5 39  2  0
  7 40  2  0
  3 40  1  0
  7 41  1  0
  7 42  1  0
  6 42  1  0
  6 43  2  0
M  END
