7MAE_XUS_A_101
     RDKit          3D

 99102  0  0  0  0  0  0  0  0999 V2000
   21.1655    1.9550   17.0471 C   0  0  2  0  0  0  0  0  0  0  0  0
   21.0487    3.1886   16.1283 C   0  0  1  0  0  0  0  0  0  0  0  0
   23.4343    2.4792   15.5067 C   0  0  0  0  0  0  0  0  0  0  0  0
   24.7521    1.3867   17.3150 C   0  0  2  0  0  0  0  0  0  0  0  0
   24.4435    0.9886   18.8849 C   0  0  0  0  0  0  0  0  0  0  0  0
   25.5387    3.0271   18.7651 C   0  0  2  0  0  0  0  0  0  0  0  0
   25.0574    4.4016   16.9100 C   0  0  0  0  0  0  0  0  0  0  0  0
   21.1960    4.4947   16.9071 C   0  0  0  0  0  0  0  0  0  0  0  0
   15.2730   -0.9122   12.9661 C   0  0  0  0  0  0  0  0  0  0  0  0
   15.6544   -0.2685   14.2928 C   0  0  0  0  0  0  0  0  0  0  0  0
   17.0862   -0.2209   14.7146 C   0  0  0  0  0  0  0  0  0  0  0  0
   18.1406   -0.8173   13.8080 C   0  0  0  0  0  0  0  0  0  0  0  0
   17.7825   -1.4745   12.4845 C   0  0  0  0  0  0  0  0  0  0  0  0
   16.3390   -1.5097   12.0647 C   0  0  0  0  0  0  0  0  0  0  0  0
   19.7135    1.9187   14.5056 C   0  0  0  0  0  0  0  0  0  0  0  0
   21.2662    0.6832   16.1971 C   0  0  0  0  0  0  0  0  0  0  0  0
   25.7495    2.2867   17.3737 C   0  0  2  0  0  0  0  0  0  0  0  0
   25.6700    3.3779   16.3433 C   0  0  0  0  0  0  0  0  0  0  0  0
   20.1350    4.4530   18.0598 C   0  0  0  0  0  0  0  0  0  0  0  0
   19.0570    3.3989   18.0799 C   0  0  0  0  0  0  0  0  0  0  0  0
   18.0507    3.3754   19.2429 C   0  0  0  0  0  0  0  0  0  0  0  0
   18.1547    4.4227   20.3400 C   0  0  0  0  0  0  0  0  0  0  0  0
   19.2181    5.4759   20.3187 C   0  0  0  0  0  0  0  0  0  0  0  0
   20.2391    5.4966   19.1630 C   0  0  0  0  0  0  0  0  0  0  0  0
   20.7731    3.4630   16.3228 C   0  0  0  0  0  0  0  0  0  0  0  0
   18.5908    2.6835   15.2756 C   0  0  1  0  0  0  0  0  0  0  0  0
   19.2772    3.8085   16.0887 C   0  0  0  0  0  0  0  0  0  0  0  0
   17.5658    3.2513   14.3430 C   0  0  0  0  0  0  0  0  0  0  0  0
   16.4122    3.2232   21.5286 C   0  0  0  0  0  0  0  0  0  0  0  0
   18.0334   -0.0642   22.7040 C   0  0  0  0  0  0  0  0  0  0  0  0
   20.0120    1.7714   19.8310 C   0  0  0  0  0  0  0  0  0  0  0  0
   16.4835   -0.2708   22.7110 C   0  0  0  0  0  0  0  0  0  0  0  0
   19.8973    0.3105   20.4563 C   0  0  0  0  0  0  0  0  0  0  0  0
   20.0729    0.6575   15.2452 N   0  0  0  0  0  0  0  0  0  0  0  0
   22.1585    3.0909   15.1896 N   0  0  0  0  0  0  0  0  0  0  0  0
   13.9137   -0.9402   12.5783 N   0  0  0  0  0  0  0  0  0  0  0  0
   20.7713   -0.8301   13.1556 O   0  0  0  0  0  0  0  0  0  0  0  0
   20.2372   -1.9739   15.1547 O   0  0  0  0  0  0  0  0  0  0  0  0
   20.0291    1.9135   17.8499 O   0  0  0  0  0  0  0  0  0  0  0  0
   24.3429    2.3686   14.6979 O   0  0  0  0  0  0  0  0  0  0  0  0
   23.5403    2.0075   16.8734 O   0  0  0  0  0  0  0  0  0  0  0  0
   24.4446    2.2150   19.4961 O   0  0  0  0  0  0  0  0  0  0  0  0
   25.1191    4.2077   18.5330 O   0  0  0  0  0  0  0  0  0  0  0  0
   17.1899    4.4159   21.4291 O   0  0  0  0  0  0  0  0  0  0  0  0
   18.2921    1.2323   22.2687 O   0  0  0  0  0  0  0  0  0  0  0  0
   18.7511    2.4034   19.9203 O   0  0  0  0  0  0  0  0  0  0  0  0
   16.7763    0.8156   20.2663 O   0  0  0  0  0  0  0  0  0  0  0  0
   17.5689    1.8581   20.9639 P   0  0  2  0  0  5  0  0  0  0  0  0
   19.8766   -0.7981   14.3199 S   0  0  2  0  0  6  0  0  0  0  0  0
   22.0431    2.0183   17.6560 H   0  0  0  0  0  0  0  0  0  0  0  0
   20.0894    3.2008   15.6546 H   0  0  0  0  0  0  0  0  0  0  0  0
   25.0262    0.5781   16.6701 H   0  0  0  0  0  0  0  0  0  0  0  0
   23.4936    0.5059   18.9839 H   0  0  0  0  0  0  0  0  0  0  0  0
   25.1477    0.2989   19.3012 H   0  0  0  0  0  0  0  0  0  0  0  0
   26.4358    3.0909   19.3448 H   0  0  0  0  0  0  0  0  0  0  0  0
   25.5477    5.3124   16.6363 H   0  0  0  0  0  0  0  0  0  0  0  0
   24.0393    4.4465   16.5840 H   0  0  0  0  0  0  0  0  0  0  0  0
   22.1820    4.5713   17.3158 H   0  0  0  0  0  0  0  0  0  0  0  0
   21.0413    5.3415   16.2716 H   0  0  0  0  0  0  0  0  0  0  0  0
   14.9238    0.1346   14.9000 H   0  0  0  0  0  0  0  0  0  0  0  0
   17.3530    0.2128   15.6122 H   0  0  0  0  0  0  0  0  0  0  0  0
   18.5150   -1.8879   11.8866 H   0  0  0  0  0  0  0  0  0  0  0  0
   16.0732   -1.9395   11.1649 H   0  0  0  0  0  0  0  0  0  0  0  0
   19.3645    1.6682   13.5256 H   0  0  0  0  0  0  0  0  0  0  0  0
   20.5790    2.5434   14.4322 H   0  0  0  0  0  0  0  0  0  0  0  0
   22.1777    0.6919   15.6368 H   0  0  0  0  0  0  0  0  0  0  0  0
   21.2615   -0.1845   16.8233 H   0  0  0  0  0  0  0  0  0  0  0  0
   26.6732    1.7664   17.2285 H   0  0  0  0  0  0  0  0  0  0  0  0
   25.1132    3.0410   15.4939 H   0  0  0  0  0  0  0  0  0  0  0  0
   26.6468    3.6565   16.0068 H   0  0  0  0  0  0  0  0  0  0  0  0
   18.9951    2.7013   17.3221 H   0  0  0  0  0  0  0  0  0  0  0  0
   17.3120    2.6556   19.2781 H   0  0  0  0  0  0  0  0  0  0  0  0
   19.2674    6.1815   21.0701 H   0  0  0  0  0  0  0  0  0  0  0  0
   20.9844    6.2099   19.1379 H   0  0  0  0  0  0  0  0  0  0  0  0
   21.2364    4.2467   16.8851 H   0  0  0  0  0  0  0  0  0  0  0  0
   20.8462    2.5437   16.8654 H   0  0  0  0  0  0  0  0  0  0  0  0
   21.2674    3.3605   15.3793 H   0  0  0  0  0  0  0  0  0  0  0  0
   18.0680    2.0097   15.9219 H   0  0  0  0  0  0  0  0  0  0  0  0
   19.2073    4.7290   15.5476 H   0  0  0  0  0  0  0  0  0  0  0  0
   18.7881    3.9041   17.0356 H   0  0  0  0  0  0  0  0  0  0  0  0
   18.0370    3.9366   13.6697 H   0  0  0  0  0  0  0  0  0  0  0  0
   17.1125    2.4585   13.7855 H   0  0  0  0  0  0  0  0  0  0  0  0
   16.8156    3.7647   14.9073 H   0  0  0  0  0  0  0  0  0  0  0  0
   16.0987    3.0595   22.5385 H   0  0  0  0  0  0  0  0  0  0  0  0
   15.5200    3.2694   20.9397 H   0  0  0  0  0  0  0  0  0  0  0  0
   18.4224   -0.2002   23.6915 H   0  0  0  0  0  0  0  0  0  0  0  0
   18.5004   -0.7748   22.0544 H   0  0  0  0  0  0  0  0  0  0  0  0
   20.7384    2.3393   20.3740 H   0  0  0  0  0  0  0  0  0  0  0  0
   20.3154    1.7066   18.8069 H   0  0  0  0  0  0  0  0  0  0  0  0
   16.0312    0.4460   23.3641 H   0  0  0  0  0  0  0  0  0  0  0  0
   16.1018   -0.1409   21.7198 H   0  0  0  0  0  0  0  0  0  0  0  0
   16.2570   -1.2587   23.0538 H   0  0  0  0  0  0  0  0  0  0  0  0
   19.5937    0.3834   21.4798 H   0  0  0  0  0  0  0  0  0  0  0  0
   19.1730   -0.2558   19.9089 H   0  0  0  0  0  0  0  0  0  0  0  0
   20.8480   -0.1771   20.4002 H   0  0  0  0  0  0  0  0  0  0  0  0
   22.0349    3.4623   14.2863 H   0  0  0  0  0  0  0  0  0  0  0  0
   13.2260   -0.5516   13.1660 H   0  0  0  0  0  0  0  0  0  0  0  0
   13.6548   -1.3483   11.7206 H   0  0  0  0  0  0  0  0  0  0  0  0
   19.2394    1.8561   17.2897 H   0  0  0  0  0  0  0  0  0  0  0  0
  1  2  1  0
  4  5  1  0
  2  8  1  0
  9 10  4  0
 10 11  4  0
 11 12  4  0
 12 13  4  0
  9 14  4  0
 13 14  4  0
  1 16  1  0
  4 17  1  0
  6 17  1  0
  7 18  1  0
 17 18  1  0
  8 19  1  0
 19 20  4  0
 20 21  4  0
 21 22  4  0
 22 23  4  0
 19 24  4  0
 23 24  4  0
 15 26  1  0
 26 27  1  0
 25 27  1  0
 26 28  1  0
 30 32  1  0
 31 33  1  0
 15 34  1  0
 16 34  1  0
  2 35  1  0
  3 35  1  0
  9 36  1  0
  1 39  1  0
  3 40  2  0
  3 41  1  0
  4 41  1  0
  5 42  1  0
  6 42  1  0
  7 43  1  0
  6 43  1  0
 22 44  1  0
 29 44  1  0
 30 45  1  0
 31 46  1  0
 29 48  1  0
 47 48  2  0
 48 45  1  6
 46 48  1  0
 12 49  1  0
 49 34  1  6
 37 49  2  0
 38 49  2  0
  1 50  1  6
  2 51  1  1
  4 52  1  1
  5 53  1  0
  5 54  1  0
  6 55  1  6
  7 56  1  0
  7 57  1  0
  8 58  1  0
  8 59  1  0
 10 60  1  0
 11 61  1  0
 13 62  1  0
 14 63  1  0
 15 64  1  0
 15 65  1  0
 16 66  1  0
 16 67  1  0
 17 68  1  6
 18 69  1  0
 18 70  1  0
 20 71  1  0
 21 72  1  0
 23 73  1  0
 24 74  1  0
 25 75  1  0
 25 76  1  0
 25 77  1  0
 26 78  1  6
 27 79  1  0
 27 80  1  0
 28 81  1  0
 28 82  1  0
 28 83  1  0
 29 84  1  0
 29 85  1  0
 30 86  1  0
 30 87  1  0
 31 88  1  0
 31 89  1  0
 32 90  1  0
 32 91  1  0
 32 92  1  0
 33 93  1  0
 33 94  1  0
 33 95  1  0
 35 96  1  0
 36 97  1  0
 36 98  1  0
 39 99  1  0
M  END
