
     RDKit          3D

 28 31  0  0  0  0  0  0  0  0999 V2000
   31.1322    6.7204    9.5808 C   0  0  0  0  0  0  0  0  0  0  0  0
   31.4217    7.5345    8.5571 C   0  0  0  0  0  0  0  0  0  0  0  0
   32.5489    8.4820    8.6347 C   0  0  0  0  0  0  0  0  0  0  0  0
   33.3201    8.5145    9.8936 C   0  0  0  0  0  0  0  0  0  0  0  0
   33.0334    7.7002   10.9250 C   0  0  0  0  0  0  0  0  0  0  0  0
   33.8040    7.8068   12.2160 C   0  0  0  0  0  0  0  0  0  0  0  0
   32.8635    8.0971   13.3808 C   0  0  0  0  0  0  0  0  0  0  0  0
   31.7187    7.0713   13.4766 C   0  0  2  0  0  0  0  0  0  0  0  0
   30.9333    6.9785   12.1240 C   0  0  1  0  0  0  0  0  0  0  0  0
   31.8946    6.6626   10.9048 C   0  0  1  0  0  0  0  0  0  0  0  0
   29.6652    6.0729   12.2371 C   0  0  2  0  0  0  0  0  0  0  0  0
   28.7962    6.3912   13.4763 C   0  0  0  0  0  0  0  0  0  0  0  0
   29.6004    6.4331   14.7944 C   0  0  1  0  0  0  0  0  0  0  0  0
   30.7420    7.4564   14.5988 C   0  0  1  0  0  0  0  0  0  0  0  0
   31.2888    7.6729   16.0099 C   0  0  0  0  0  0  0  0  0  0  0  0
   30.0597    7.5064   16.9450 C   0  0  2  0  0  0  0  0  0  0  0  0
   28.8782    7.0811   16.0208 C   0  0  2  0  0  0  0  0  0  0  0  0
   30.1078    5.0136   15.1634 C   0  0  0  0  0  0  0  0  0  0  0  0
   32.5389    5.2580   10.9616 C   0  0  0  0  0  0  0  0  0  0  0  0
   27.7974    6.1768   16.6407 C   0  0  0  0  0  0  0  0  0  0  0  0
   26.4151    6.0993   16.0093 C   0  0  0  0  0  0  0  0  0  0  0  0
   29.7984    8.7660   17.7673 C   0  0  0  0  0  0  0  0  0  0  0  0
   30.4303    8.2524   11.8978 F   0  0  0  0  0  0  0  0  0  0  0  0
   32.8345    9.2104    7.6927 O   0  0  0  0  0  0  0  0  0  0  0  0
   29.9775    4.6839   12.2244 O   0  0  0  0  0  0  0  0  0  0  0  0
   28.1780    8.2646   15.5977 O   0  0  0  0  0  0  0  0  0  0  0  0
   28.0645    5.4941   17.6408 O   0  0  0  0  0  0  0  0  0  0  0  0
   25.7543    4.8890   16.3545 O   0  0  0  0  0  0  0  0  0  0  0  0
  1  2  2  0
  2  3  1  0
  3  4  1  0
  4  5  2  0
  5  6  1  0
  6  7  1  0
  8  7  1  6
  8  9  1  0
  1 10  1  0
  5 10  1  0
  9 10  1  0
  9 11  1  0
 11 12  1  0
 12 13  1  0
  8 14  1  0
 13 14  1  0
 14 15  1  1
 15 16  1  0
 13 17  1  0
 16 17  1  0
 13 18  1  1
 10 19  1  1
 17 20  1  0
 20 21  1  0
 16 22  1  6
  9 23  1  6
  3 24  2  0
 11 25  1  1
 17 26  1  6
 20 27  2  0
 21 28  1  0
M  END
