
     RDKit          3D

  9  9  0  0  0  0  0  0  0  0999 V2000
   12.8765   19.7772   41.2311 C   0  0  0  0  0  0  0  0  0  0  0  0
   13.9371   20.8415   41.2320 C   0  0  0  0  0  0  0  0  0  0  0  0
   15.1983   20.5525   41.7759 C   0  0  0  0  0  0  0  0  0  0  0  0
   16.1764   21.5427   41.8157 C   0  0  0  0  0  0  0  0  0  0  0  0
   14.7327   23.0509   40.8446 C   0  0  0  0  0  0  0  0  0  0  0  0
   13.7059   22.1153   40.6967 C   0  0  0  0  0  0  0  0  0  0  0  0
   17.5259   21.2460   42.3971 C   0  0  0  0  0  0  0  0  0  0  0  0
   15.9574   22.7949   41.3634 N   0  0  0  0  0  0  0  0  0  0  0  0
   12.4379   22.5092   40.2426 N   0  0  0  0  0  0  0  0  0  0  0  0
  1  2  1  0
  2  3  4  0
  3  4  4  0
  5  6  4  0
  2  6  4  0
  4  7  1  0
  5  8  4  0
  4  8  4  0
  6  9  1  0
M  END
