7RWS_4UR_A_401
     RDKit          3D

 69 75  0  0  0  0  0  0  0  0999 V2000
   17.9695   53.4482   37.3970 C   0  0  2  0  0  0  0  0  0  0  0  0
   17.3608   54.8255   37.0419 C   0  0  2  0  0  0  0  0  0  0  0  0
   13.5551   54.9362   34.6375 C   0  0  1  0  0  0  0  0  0  0  0  0
    8.1471   56.4360   33.4136 N   0  0  0  0  0  0  0  0  0  0  0  0
    8.5770   55.2394   32.7638 C   0  0  0  0  0  0  0  0  0  0  0  0
    9.8771   54.8297   32.8928 N   0  0  0  0  0  0  0  0  0  0  0  0
   10.2565   53.6949   32.2564 C   0  0  0  0  0  0  0  0  0  0  0  0
    9.4078   52.9662   31.4986 C   0  0  0  0  0  0  0  0  0  0  0  0
   10.0478   51.9220   30.9382 N   0  0  0  0  0  0  0  0  0  0  0  0
   11.3202   52.0685   31.4004 C   0  0  0  0  0  0  0  0  0  0  0  0
   11.4768   53.1452   32.2165 N   0  0  0  0  0  0  0  0  0  0  0  0
   12.7123   53.6460   32.8220 C   0  0  2  0  0  0  0  0  0  0  0  0
   13.2007   52.7090   33.7472 O   0  0  0  0  0  0  0  0  0  0  0  0
   13.9002   53.4312   34.7402 C   0  0  2  0  0  0  0  0  0  0  0  0
   13.5496   52.8577   36.1217 C   0  0  2  0  0  0  0  0  0  0  0  0
   14.0807   51.5533   36.2371 O   0  0  0  0  0  0  0  0  0  0  0  0
   14.0217   51.0294   37.8705 P   0  0  1  0  0  5  0  0  0  0  0  0
   13.1128   51.9027   38.7120 O   0  0  0  0  0  0  0  0  0  0  0  0
   13.4166   49.4497   37.8919 O   0  0  0  0  0  0  0  0  0  0  0  0
   15.5888   51.0031   38.5655 O   0  0  0  0  0  0  0  0  0  0  0  0
   16.2063   52.2567   38.3612 C   0  0  2  0  0  0  0  0  0  0  0  0
   17.0099   52.3029   37.0872 C   0  0  2  0  0  0  0  0  0  0  0  0
   17.7412   51.1138   36.9084 O   0  0  0  0  0  0  0  0  0  0  0  0
   16.8143   54.7906   35.7384 O   0  0  0  0  0  0  0  0  0  0  0  0
   15.6999   56.0700   35.5327 P   0  0  2  0  0  5  0  0  0  0  0  0
   16.4734   57.3247   35.1954 O   0  0  0  0  0  0  0  0  0  0  0  0
   14.7948   56.3529   36.9419 O   0  0  0  0  0  0  0  0  0  0  0  0
   14.6747   55.6968   34.2095 O   0  0  0  0  0  0  0  0  0  0  0  0
   12.4737   54.9483   33.5742 C   0  0  2  0  0  0  0  0  0  0  0  0
   12.5076   56.0861   32.7451 O   0  0  0  0  0  0  0  0  0  0  0  0
   18.2525   53.4032   38.7853 O   0  0  0  0  0  0  0  0  0  0  0  0
   17.2962   52.5430   39.3858 C   0  0  1  0  0  0  0  0  0  0  0  0
   16.7300   53.1617   40.5861 N   0  0  0  0  0  0  0  0  0  0  0  0
   15.6313   53.9568   40.6890 C   0  0  0  0  0  0  0  0  0  0  0  0
   15.3251   54.2922   41.9734 N   0  0  0  0  0  0  0  0  0  0  0  0
   16.2804   53.6589   42.6798 C   0  0  0  0  0  0  0  0  0  0  0  0
   16.4852   53.6234   44.0542 C   0  0  0  0  0  0  0  0  0  0  0  0
   15.6367   54.3314   44.9604 N   0  0  0  0  0  0  0  0  0  0  0  0
   17.5412   52.8899   44.5177 N   0  0  0  0  0  0  0  0  0  0  0  0
   18.3683   52.2074   43.6612 C   0  0  0  0  0  0  0  0  0  0  0  0
   18.1560   52.2497   42.3114 N   0  0  0  0  0  0  0  0  0  0  0  0
   17.1113   52.9814   41.8559 C   0  0  0  0  0  0  0  0  0  0  0  0
    8.0897   53.3720   31.3529 C   0  0  0  0  0  0  0  0  0  0  0  0
    7.2822   52.7182   30.6413 O   0  0  0  0  0  0  0  0  0  0  0  0
    7.6933   54.5113   31.9997 N   0  0  0  0  0  0  0  0  0  0  0  0
   18.9127   53.3176   36.8223 H   0  0  0  0  0  0  0  0  0  0  0  0
   18.1600   55.5963   37.0888 H   0  0  0  0  0  0  0  0  0  0  0  0
   16.6026   55.0644   37.8171 H   0  0  0  0  0  0  0  0  0  0  0  0
   13.0998   55.3458   35.5671 H   0  0  0  0  0  0  0  0  0  0  0  0
    8.1759   57.3519   32.9102 H   0  0  0  0  0  0  0  0  0  0  0  0
    7.7802   56.4088   34.3919 H   0  0  0  0  0  0  0  0  0  0  0  0
   12.1271   51.3996   31.1275 H   0  0  0  0  0  0  0  0  0  0  0  0
   13.4872   53.7860   32.0342 H   0  0  0  0  0  0  0  0  0  0  0  0
   14.9861   53.2863   34.5584 H   0  0  0  0  0  0  0  0  0  0  0  0
   12.4430   52.8271   36.2378 H   0  0  0  0  0  0  0  0  0  0  0  0
   13.9742   53.5431   36.8837 H   0  0  0  0  0  0  0  0  0  0  0  0
   12.5128   49.5179   37.4924 H   0  0  0  0  0  0  0  0  0  0  0  0
   15.4862   53.1049   38.4117 H   0  0  0  0  0  0  0  0  0  0  0  0
   16.3873   52.4961   36.1938 H   0  0  0  0  0  0  0  0  0  0  0  0
   17.0794   50.3881   36.7628 H   0  0  0  0  0  0  0  0  0  0  0  0
   13.9189   56.6876   36.6201 H   0  0  0  0  0  0  0  0  0  0  0  0
   11.4822   54.9141   34.0775 H   0  0  0  0  0  0  0  0  0  0  0  0
   13.1276   56.7509   33.1412 H   0  0  0  0  0  0  0  0  0  0  0  0
   17.8108   51.5973   39.6713 H   0  0  0  0  0  0  0  0  0  0  0  0
   15.0488   54.2924   39.8406 H   0  0  0  0  0  0  0  0  0  0  0  0
   16.0059   54.6969   45.8654 H   0  0  0  0  0  0  0  0  0  0  0  0
   14.6496   54.5454   44.6969 H   0  0  0  0  0  0  0  0  0  0  0  0
   19.1973   51.6359   44.0561 H   0  0  0  0  0  0  0  0  0  0  0  0
    6.7061   54.8392   31.9005 H   0  0  0  0  0  0  0  0  0  0  0  0
  1  2  1  0
  4  5  1  0
  5  6  2  0
  6  7  1  0
  7  8  2  0
  8  9  1  0
  9 10  2  0
  7 11  1  0
 10 11  1  0
 12 11  1  0
 12 13  1  0
  3 14  1  0
 13 14  1  0
 14 15  1  0
 15 16  1  0
 16 17  1  0
 17 18  2  0
 17 19  1  6
 17 20  1  0
 21 20  1  0
  1 22  1  0
 21 22  1  0
 22 23  1  0
  2 24  1  0
 24 25  1  0
 25 26  2  0
 25 27  1  1
 25 28  1  0
  3 28  1  0
  3 29  1  0
 12 29  1  0
 29 30  1  0
  1 31  1  0
 31 32  1  0
 21 32  1  0
 32 33  1  0
 33 34  1  0
 34 35  2  0
 35 36  1  0
 36 37  2  0
 37 38  1  0
 37 39  1  0
 39 40  2  0
 40 41  1  0
 36 42  1  0
 33 42  1  0
 41 42  2  0
  8 43  1  0
 43 44  2  0
  5 45  1  0
 43 45  1  0
  1 46  1  6
  2 47  1  6
  2 48  1  0
  3 49  1  1
  4 50  1  0
  4 51  1  0
 10 52  1  0
 12 53  1  6
 14 54  1  6
 15 55  1  1
 15 56  1  0
 19 57  1  0
 21 58  1  6
 22 59  1  6
 23 60  1  0
 27 61  1  0
 29 62  1  1
 30 63  1  0
 32 64  1  1
 34 65  1  0
 38 66  1  0
 38 67  1  0
 40 68  1  0
 45 69  1  0
M  END
