1XOQ_ROF_B_501
     RDKit          3D

 40 42  0  0  0  0  0  0  0  0999 V2000
   22.7264   21.7183   94.9245 O   0  0  0  0  0  0  0  0  0  0  0  0
   25.9260   17.0581  101.3950 C   0  0  0  0  0  0  0  0  0  0  0  0
   25.6005   16.5184   99.9812 C   0  0  0  0  0  0  0  0  0  0  0  0
   24.7310   17.4452  100.7577 C   0  0  2  0  0  0  0  0  0  0  0  0
   21.7715   21.5121   95.6901 C   0  0  0  0  0  0  0  0  0  0  0  0
   22.0331   21.3862   97.1424 C   0  0  0  0  0  0  0  0  0  0  0  0
   21.3890   22.1656   98.1096 C   0  0  0  0  0  0  0  0  0  0  0  0
   21.6881   21.9921   99.4666 C   0  0  0  0  0  0  0  0  0  0  0  0
   22.6385   21.0432   99.8857 C   0  0  0  0  0  0  0  0  0  0  0  0
   22.9788   20.8183  101.2037 O   0  0  0  0  0  0  0  0  0  0  0  0
   23.0947   21.8589  102.1616 C   0  0  1  0  0  0  0  0  0  0  0  0
   24.0582   22.6703  101.7411 F   0  0  0  0  0  0  0  0  0  0  0  0
   21.9147   22.4880  102.2743 F   0  0  0  0  0  0  0  0  0  0  0  0
   23.2961   20.2771   98.9272 C   0  0  0  0  0  0  0  0  0  0  0  0
   24.2270   19.3458   99.3450 O   0  0  0  0  0  0  0  0  0  0  0  0
   23.8541   18.6411  100.5298 C   0  0  0  0  0  0  0  0  0  0  0  0
   22.9843   20.4496   97.5645 C   0  0  0  0  0  0  0  0  0  0  0  0
   20.5451   21.3995   95.1885 N   0  0  0  0  0  0  0  0  0  0  0  0
   20.2860   20.6843   93.9983 C   0  0  0  0  0  0  0  0  0  0  0  0
   21.3434   20.2774   93.1662 C   0  0  0  0  0  0  0  0  0  0  0  0
   22.9743   20.7069   93.5642 Cl  0  0  0  0  0  0  0  0  0  0  0  0
   21.0468   19.5523   92.0138 C   0  0  0  0  0  0  0  0  0  0  0  0
   19.7807   19.2354   91.6907 N   0  0  0  0  0  0  0  0  0  0  0  0
   18.7437   19.6071   92.4590 C   0  0  0  0  0  0  0  0  0  0  0  0
   18.9729   20.3277   93.6411 C   0  0  0  0  0  0  0  0  0  0  0  0
   17.6246   20.7519   94.6504 Cl  0  0  0  0  0  0  0  0  0  0  0  0
   25.8929   16.4007  102.2385 H   0  0  0  0  0  0  0  0  0  0  0  0
   26.7516   17.5796  101.8324 H   0  0  0  0  0  0  0  0  0  0  0  0
   26.1419   16.8637   99.1254 H   0  0  0  0  0  0  0  0  0  0  0  0
   25.5025   15.5618   99.5120 H   0  0  0  0  0  0  0  0  0  0  0  0
   23.7022   17.5666  101.0257 H   0  0  0  0  0  0  0  0  0  0  0  0
   20.6918   22.8701   97.8222 H   0  0  0  0  0  0  0  0  0  0  0  0
   21.2033   22.5700  100.1710 H   0  0  0  0  0  0  0  0  0  0  0  0
   23.3466   21.4881  103.1331 H   0  0  0  0  0  0  0  0  0  0  0  0
   22.8393   18.3151  100.4356 H   0  0  0  0  0  0  0  0  0  0  0  0
   23.9661   19.3029  101.3631 H   0  0  0  0  0  0  0  0  0  0  0  0
   23.4688   19.8715   96.8601 H   0  0  0  0  0  0  0  0  0  0  0  0
   19.7950   21.8276   95.6611 H   0  0  0  0  0  0  0  0  0  0  0  0
   21.8158   19.2519   91.3946 H   0  0  0  0  0  0  0  0  0  0  0  0
   17.7803   19.3632   92.1806 H   0  0  0  0  0  0  0  0  0  0  0  0
  2  3  1  0
  2  4  1  0
  3  4  1  0
  1  5  2  0
  5  6  1  0
  6  7  2  0
  7  8  1  0
  8  9  2  0
  9 10  1  0
 10 11  1  0
 11 12  1  0
 11 13  1  0
  9 14  1  0
 14 15  1  0
  4 16  1  0
 15 16  1  0
  6 17  1  0
 14 17  2  0
  5 18  1  0
 18 19  1  0
 19 20  2  0
 20 21  1  0
 20 22  1  0
 22 23  2  0
 23 24  1  0
 19 25  1  0
 24 25  2  0
 25 26  1  0
  2 27  1  0
  2 28  1  0
  3 29  1  0
  3 30  1  0
  4 31  1  6
  7 32  1  0
  8 33  1  0
 11 34  1  6
 16 35  1  0
 16 36  1  0
 17 37  1  0
 18 38  1  0
 22 39  1  0
 24 40  1  0
M  END
