
     RDKit          3D

 24 25  0  0  0  0  0  0  0  0999 V2000
   27.8714    7.4862   12.6874 O   0  0  0  0  0  0  0  0  0  0  0  0
   28.0383    7.5025   11.2466 S   0  0  2  0  0  6  0  0  0  0  0  0
   29.3514    7.2407   10.6824 O   0  0  0  0  0  0  0  0  0  0  0  0
   27.5401    9.0820   10.6119 C   0  0  0  0  0  0  0  0  0  0  0  0
   27.9165    9.4403    9.3126 C   0  0  0  0  0  0  0  0  0  0  0  0
   27.5463   10.6878    8.8103 C   0  0  0  0  0  0  0  0  0  0  0  0
   26.8134   11.5708    9.6048 C   0  0  0  0  0  0  0  0  0  0  0  0
   26.4540   11.2138   10.9054 C   0  0  0  0  0  0  0  0  0  0  0  0
   26.8224    9.9693   11.4165 C   0  0  0  0  0  0  0  0  0  0  0  0
   26.9467    6.2622   10.5828 C   0  0  0  0  0  0  0  0  0  0  0  0
   27.2912    5.6506    9.3672 C   0  0  0  0  0  0  0  0  0  0  0  0
   25.8302    5.8149   11.2907 C   0  0  0  0  0  0  0  0  0  0  0  0
   25.3951    6.4389   12.5488 C   0  0  0  0  0  0  0  0  0  0  0  0
   24.8900    7.6612   12.2720 O   0  0  0  0  0  0  0  0  0  0  0  0
   24.3511    8.3272   13.4146 C   0  0  0  0  0  0  0  0  0  0  0  0
   25.5118    5.8992   13.6327 O   0  0  0  0  0  0  0  0  0  0  0  0
   25.0439    4.7742   10.7719 C   0  0  0  0  0  0  0  0  0  0  0  0
   25.3841    4.1760    9.5501 C   0  0  0  0  0  0  0  0  0  0  0  0
   26.5083    4.6134    8.8455 C   0  0  0  0  0  0  0  0  0  0  0  0
   27.0104    3.9405    7.3382 Cl  0  0  0  0  0  0  0  0  0  0  0  0
   24.3925    2.8732    8.8936 S   0  0  0  0  0  6  0  0  0  0  0  0
   24.9103    1.6137    9.3694 O   0  0  0  0  0  0  0  0  0  0  0  0
   24.1208    3.1593    7.5058 O   0  0  0  0  0  0  0  0  0  0  0  0
   22.9019    3.0386    9.6612 N   0  0  0  0  0  0  0  0  0  0  0  0
  1  2  2  0
  2  3  2  0
  2  4  1  6
  4  5  4  0
  5  6  4  0
  6  7  4  0
  7  8  4  0
  8  9  4  0
  4  9  4  0
  2 10  1  0
 10 11  4  0
 10 12  4  0
 12 13  1  0
 13 14  1  0
 14 15  1  0
 13 16  2  0
 12 17  4  0
 17 18  4  0
 11 19  4  0
 18 19  4  0
 19 20  1  0
 18 21  1  0
 21 22  2  0
 21 23  2  0
 21 24  1  0
M  END
