8G0V_YHT_B_704
     RDKit          3D

 26 28  0  0  0  0  0  0  0  0999 V2000
    8.0603   19.4137  -38.3816 C   0  0  1  0  0  0  0  0  0  0  0  0
    7.4661   20.7803  -38.0133 C   0  0  2  0  0  0  0  0  0  0  0  0
    7.6450   20.7351  -36.5143 C   0  0  2  0  0  0  0  0  0  0  0  0
    8.2697   23.0613  -36.0579 C   0  0  0  0  0  0  0  0  0  0  0  0
    6.7365   23.6565  -34.6049 C   0  0  0  0  0  0  0  0  0  0  0  0
    6.5186   22.3320  -34.9735 C   0  0  0  0  0  0  0  0  0  0  0  0
   14.9242   17.7115  -38.9829 C   0  0  0  0  0  0  0  0  0  0  0  0
   15.4683   18.0217  -39.9956 C   0  0  0  0  0  0  0  0  0  0  0  0
   10.1201   18.3551  -37.3821 C   0  0  0  0  0  0  0  0  0  0  0  0
   14.2543   17.3070  -37.7452 C   0  0  0  0  0  0  0  0  0  0  0  0
    4.7035   22.3489  -33.5341 C   0  0  0  0  0  0  0  0  0  0  0  0
    5.9454   24.3229  -33.7086 C   0  0  0  0  0  0  0  0  0  0  0  0
    8.7897   19.0207  -37.1332 C   0  0  1  0  0  0  0  0  0  0  0  0
    7.4556   21.9852  -35.8546 N   0  0  0  0  0  0  0  0  0  0  0  0
    7.8228   24.0714  -35.2929 N   0  0  0  0  0  0  0  0  0  0  0  0
    5.4880   21.7062  -34.4156 N   0  0  0  0  0  0  0  0  0  0  0  0
    4.9055   23.6334  -33.1692 N   0  0  0  0  0  0  0  0  0  0  0  0
    6.1811   25.6886  -33.3371 N   0  0  0  0  0  0  0  0  0  0  0  0
    7.0493   18.4733  -38.6047 O   0  0  0  0  0  0  0  0  0  0  0  0
    8.9500   20.2351  -36.4344 O   0  0  0  0  0  0  0  0  0  0  0  0
    6.1504   20.8535  -38.4207 O   0  0  0  0  0  0  0  0  0  0  0  0
   10.7494   18.2030  -36.1524 O   0  0  0  0  0  0  0  0  0  0  0  0
   12.1813   15.8039  -36.0387 O   0  0  0  0  0  0  0  0  0  0  0  0
   13.0154   17.9230  -37.6493 O   0  0  0  0  0  0  0  0  0  0  0  0
   13.0751   18.0154  -35.0615 O   0  0  0  0  0  0  0  0  0  0  0  0
   12.2460   17.4764  -36.2264 P   0  0  1  0  0  0  0  0  0  0  0  0
  1  2  1  0
  2  3  1  0
  5  6  2  0
  7  8  3  0
  7 10  1  0
  5 12  1  0
 13  9  1  6
  1 13  1  0
  4 14  1  0
  6 14  1  0
  3 14  1  6
  4 15  2  0
  5 15  1  0
  6 16  1  0
 11 16  2  0
 12 17  2  0
 11 17  1  0
 12 18  1  0
  1 19  1  1
  3 20  1  0
 13 20  1  0
  2 21  1  1
  9 22  1  0
 10 24  1  0
 25 26  2  0
 24 26  1  0
 22 26  1  0
 26 23  1  1
M  END
$$$$
