
     RDKit          3D

 11 11  0  0  0  0  0  0  0  0999 V2000
   14.2886    2.9840   34.4308 C   0  0  0  0  0  0  0  0  0  0  0  0
   12.9086    2.8002   35.0792 C   0  0  1  0  0  0  0  0  0  0  0  0
   12.2391    1.6518   34.5428 O   0  0  0  0  0  0  0  0  0  0  0  0
   13.0061    2.6832   36.6107 C   0  0  1  0  0  0  0  0  0  0  0  0
   12.6045    1.3746   37.0586 O   0  0  0  0  0  0  0  0  0  0  0  0
   14.4228    2.9543   37.1356 C   0  0  2  0  0  0  0  0  0  0  0  0
   14.3719    3.1038   38.5591 O   0  0  0  0  0  0  0  0  0  0  0  0
   15.0049    4.2097   36.4586 C   0  0  2  0  0  0  0  0  0  0  0  0
   15.0451    4.1104   34.9792 N   0  0  0  0  0  0  0  0  0  0  0  0
   16.4099    4.5517   36.9992 C   0  0  0  0  0  0  0  0  0  0  0  0
   17.1623    3.3627   37.2478 O   0  0  0  0  0  0  0  0  0  0  0  0
  1  2  1  0
  2  3  1  6
  2  4  1  0
  4  5  1  6
  4  6  1  0
  6  7  1  1
  6  8  1  0
  1  9  1  0
  8  9  1  0
  8 10  1  1
 10 11  1  0
M  END
