
     RDKit          3D

 17 18  0  0  0  0  0  0  0  0999 V2000
    7.6653    4.9878  -10.0125 N   0  0  0  0  0  0  0  0  0  0  0  0
    7.6609    5.7370  -11.1805 C   0  0  0  0  0  0  0  0  0  0  0  0
    8.8313    5.7405  -11.8938 N   0  0  0  0  0  0  0  0  0  0  0  0
    9.9698    5.0611  -11.5762 C   0  0  0  0  0  0  0  0  0  0  0  0
    9.9065    4.2544  -10.3502 C   0  0  0  0  0  0  0  0  0  0  0  0
    8.7764    4.2499   -9.6405 C   0  0  0  0  0  0  0  0  0  0  0  0
    6.7009    6.3875  -11.5874 O   0  0  0  0  0  0  0  0  0  0  0  0
   10.9876    5.1045  -12.2557 O   0  0  0  0  0  0  0  0  0  0  0  0
    6.4463    4.8676   -9.2080 C   0  0  1  0  0  0  0  0  0  0  0  0
    6.2441    3.5522   -8.4236 C   0  0  1  0  0  0  0  0  0  0  0  0
    6.3844    3.9823   -6.9694 C   0  0  1  0  0  0  0  0  0  0  0  0
    5.9082    5.4264   -7.0251 C   0  0  2  0  0  0  0  0  0  0  0  0
    4.9116    3.0455   -8.6489 O   0  0  0  0  0  0  0  0  0  0  0  0
    5.5846    3.1683   -6.1136 O   0  0  0  0  0  0  0  0  0  0  0  0
    6.4118    5.9614   -8.2683 O   0  0  0  0  0  0  0  0  0  0  0  0
    6.4295    6.2734   -5.8692 C   0  0  0  0  0  0  0  0  0  0  0  0
    7.5872    5.6558   -5.3048 O   0  0  0  0  0  0  0  0  0  0  0  0
  1  2  4  0
  2  3  4  0
  3  4  4  0
  4  5  4  0
  1  6  4  0
  5  6  4  0
  2  7  2  0
  4  8  2  0
  9  1  1  1
  9 10  1  0
 10 11  1  0
 11 12  1  0
 10 13  1  1
 11 14  1  1
  9 15  1  0
 12 15  1  0
 12 16  1  1
 16 17  1  0
M  END
