6XHT_V2V_B_301
     RDKit          3D

 59 60  0  0  0  0  0  0  0  0999 V2000
    7.1117  -17.8251   69.9569 C   0  0  0  0  0  0  0  0  0  0  0  0
    5.8702  -18.4570   69.9833 C   0  0  0  0  0  0  0  0  0  0  0  0
    5.1207  -16.9356   71.6323 C   0  0  0  0  0  0  0  0  0  0  0  0
    7.3320  -16.7447   70.8110 C   0  0  0  0  0  0  0  0  0  0  0  0
    3.5672  -18.7011   70.8370 C   0  0  2  0  0  0  0  0  0  0  0  0
    2.5556  -17.9081   70.0243 C   0  0  1  0  0  0  0  0  0  0  0  0
    1.6103  -18.9881   69.5511 C   0  0  1  0  0  0  0  0  0  0  0  0
    2.5308  -20.2133   69.4643 C   0  0  1  0  0  0  0  0  0  0  0  0
    3.0017  -20.4626   68.0249 C   0  0  1  0  0  0  0  0  0  0  0  0
    4.4635  -17.2768   63.4173 C   0  0  1  0  0  0  0  0  0  0  0  0
    4.4184  -18.6184   64.1650 C   0  0  2  0  0  0  0  0  0  0  0  0
    5.6800  -19.4996   63.9795 C   0  0  2  0  0  0  0  0  0  0  0  0
    6.9997  -18.9325   64.5666 C   0  0  2  0  0  0  0  0  0  0  0  0
    7.7572  -19.9536   65.4303 C   0  0  2  0  0  0  0  0  0  0  0  0
    4.8858  -18.0279   70.8353 N   0  0  0  0  0  0  0  0  0  0  0  0
    6.3323  -16.3204   71.6203 N   0  0  0  0  0  0  0  0  0  0  0  0
    8.5996  -16.0824   70.8356 N   0  0  0  0  0  0  0  0  0  0  0  0
    4.2176  -16.4838   72.3925 O   0  0  0  0  0  0  0  0  0  0  0  0
    3.6650  -20.0033   70.2897 O   0  0  0  0  0  0  0  0  0  0  0  0
    2.1453  -19.8057   67.1236 O   0  0  0  0  0  0  0  0  0  0  0  0
    1.1235  -17.4658   67.7651 O   0  0  0  0  0  0  0  0  0  0  0  0
    3.6500  -17.8495   68.3624 O   0  0  0  0  0  0  0  0  0  0  0  0
    2.8152  -17.5320   65.7206 O   0  0  0  0  0  0  0  0  0  0  0  0
    5.3338  -17.5470   66.4938 O   0  0  0  0  0  0  0  0  0  0  0  0
    4.0724  -15.2736   66.7999 O   0  0  0  0  0  0  0  0  0  0  0  0
    4.7928  -16.2312   64.3021 O   0  0  0  0  0  0  0  0  0  0  0  0
    8.0662  -19.3807   66.6746 O   0  0  0  0  0  0  0  0  0  0  0  0
    6.7452  -17.7626   65.3008 O   0  0  0  0  0  0  0  0  0  0  0  0
    5.8587  -19.7943   62.6150 O   0  0  0  0  0  0  0  0  0  0  0  0
    3.2978  -19.3466   63.7345 O   0  0  0  0  0  0  0  0  0  0  0  0
    0.6018  -19.2300   70.5012 O   0  0  0  0  0  0  0  0  0  0  0  0
    1.9189  -16.9354   70.8128 O   0  0  0  0  0  0  0  0  0  0  0  0
    2.3921  -18.1242   67.2607 P   0  0  1  0  0  5  0  0  0  0  0  0
    4.2767  -16.6702   65.8649 P   0  0  2  0  0  5  0  0  0  0  0  0
    7.8851  -18.1608   69.2704 H   0  0  0  0  0  0  0  0  0  0  0  0
    5.6975  -19.2815   69.3091 H   0  0  0  0  0  0  0  0  0  0  0  0
    3.1918  -18.8208   71.8783 H   0  0  0  0  0  0  0  0  0  0  0  0
    3.0555  -17.4358   69.1480 H   0  0  0  0  0  0  0  0  0  0  0  0
    1.1586  -18.7173   68.5664 H   0  0  0  0  0  0  0  0  0  0  0  0
    1.9951  -21.1254   69.8197 H   0  0  0  0  0  0  0  0  0  0  0  0
    4.0576  -20.1241   67.9571 H   0  0  0  0  0  0  0  0  0  0  0  0
    2.9721  -21.5495   67.8169 H   0  0  0  0  0  0  0  0  0  0  0  0
    5.2394  -17.3506   62.6219 H   0  0  0  0  0  0  0  0  0  0  0  0
    3.4839  -17.1162   62.9150 H   0  0  0  0  0  0  0  0  0  0  0  0
    4.3112  -18.4009   65.2532 H   0  0  0  0  0  0  0  0  0  0  0  0
    5.4677  -20.4487   64.5225 H   0  0  0  0  0  0  0  0  0  0  0  0
    7.6472  -18.6800   63.6929 H   0  0  0  0  0  0  0  0  0  0  0  0
    8.7028  -20.2401   64.9193 H   0  0  0  0  0  0  0  0  0  0  0  0
    7.1341  -20.8665   65.5826 H   0  0  0  0  0  0  0  0  0  0  0  0
    8.6499  -15.0534   70.6592 H   0  0  0  0  0  0  0  0  0  0  0  0
    9.4735  -16.5960   71.1033 H   0  0  0  0  0  0  0  0  0  0  0  0
    4.3512  -18.5041   68.1110 H   0  0  0  0  0  0  0  0  0  0  0  0
    4.8756  -14.7205   66.6140 H   0  0  0  0  0  0  0  0  0  0  0  0
    7.3715  -18.6817   66.8250 H   0  0  0  0  0  0  0  0  0  0  0  0
    7.5115  -17.6352   65.9178 H   0  0  0  0  0  0  0  0  0  0  0  0
    6.3858  -20.6306   62.5645 H   0  0  0  0  0  0  0  0  0  0  0  0
    2.5457  -18.7031   63.6402 H   0  0  0  0  0  0  0  0  0  0  0  0
    0.9267  -18.8601   71.3612 H   0  0  0  0  0  0  0  0  0  0  0  0
    1.6189  -16.2237   70.1912 H   0  0  0  0  0  0  0  0  0  0  0  0
  1  2  2  0
  1  4  1  0
  5  6  1  0
  6  7  1  0
  7  8  1  0
  8  9  1  0
 10 11  1  0
 11 12  1  0
 12 13  1  0
 13 14  1  0
  2 15  1  0
  3 15  1  0
  5 15  1  0
  3 16  1  0
  4 16  2  0
  4 17  1  0
  3 18  2  0
  5 19  1  0
  8 19  1  0
  9 20  1  0
 10 26  1  0
 14 27  1  0
 13 28  1  0
 12 29  1  0
 11 30  1  0
  7 31  1  0
  6 32  1  0
 33 20  1  6
 21 33  2  0
 33 22  1  0
 23 33  1  0
 34 23  1  6
 24 34  2  0
 34 25  1  0
 26 34  1  0
  1 35  1  0
  2 36  1  0
  5 37  1  1
  6 38  1  6
  7 39  1  6
  8 40  1  1
  9 41  1  1
  9 42  1  0
 10 43  1  6
 10 44  1  0
 11 45  1  1
 12 46  1  1
 13 47  1  6
 14 48  1  6
 14 49  1  0
 17 50  1  0
 17 51  1  0
 22 52  1  0
 25 53  1  0
 27 54  1  0
 28 55  1  0
 29 56  1  0
 30 57  1  0
 31 58  1  0
 32 59  1  0
M  END
