1JLA_TNK_A_999
     RDKit          3D

 27 29  0  0  0  0  0  0  0  0999 V2000
   41.6673  -11.2743   13.8656 C   0  0  0  0  0  0  0  0  0  0  0  0
   40.4935  -11.3833   14.6352 C   0  0  0  0  0  0  0  0  0  0  0  0
   39.2400  -11.2869   14.0869 C   0  0  0  0  0  0  0  0  0  0  0  0
   39.0618  -11.0766   12.7425 C   0  0  0  0  0  0  0  0  0  0  0  0
   40.1845  -10.9659   11.9651 C   0  0  0  0  0  0  0  0  0  0  0  0
   41.4656  -11.0650   12.5308 C   0  0  0  0  0  0  0  0  0  0  0  0
   43.0988  -10.6246   15.8083 C   0  0  0  0  0  0  0  0  0  0  0  0
   42.7587   -9.3282   15.9175 N   0  0  0  0  0  0  0  0  0  0  0  0
   42.9625   -8.6170   17.0705 C   0  0  0  0  0  0  0  0  0  0  0  0
   42.6376   -7.4027   17.1533 O   0  0  0  0  0  0  0  0  0  0  0  0
   43.5120   -9.1690   18.1618 N   0  0  0  0  0  0  0  0  0  0  0  0
   43.8664  -10.4572   18.1072 C   0  0  0  0  0  0  0  0  0  0  0  0
   44.3779  -10.9577   19.1380 O   0  0  0  0  0  0  0  0  0  0  0  0
   43.6649  -11.2024   16.9359 C   0  0  0  0  0  0  0  0  0  0  0  0
   42.9652  -11.3732   14.5561 C   0  0  0  0  0  0  0  0  0  0  0  0
   43.9882  -12.6425   17.0375 C   0  0  2  0  0  0  0  0  0  0  0  0
   43.0129  -13.2376   18.0655 C   0  0  0  0  0  0  0  0  0  0  0  0
   45.3720  -12.7973   17.5971 C   0  0  0  0  0  0  0  0  0  0  0  0
   42.1207   -8.5753   14.8495 C   0  0  0  0  0  0  0  0  0  0  0  0
   43.0711   -8.4136   13.8240 O   0  0  0  0  0  0  0  0  0  0  0  0
   42.5826   -7.6906   12.7411 C   0  0  0  0  0  0  0  0  0  0  0  0
   43.4198   -6.4522   12.5607 C   0  0  0  0  0  0  0  0  0  0  0  0
   44.7249   -6.5066   12.1313 C   0  0  0  0  0  0  0  0  0  0  0  0
   45.4407   -5.3373   11.9753 C   0  0  0  0  0  0  0  0  0  0  0  0
   44.8284   -4.1171   12.2562 C   0  0  0  0  0  0  0  0  0  0  0  0
   43.5109   -4.0465   12.6910 C   0  0  0  0  0  0  0  0  0  0  0  0
   42.8292   -5.2249   12.8351 C   0  0  0  0  0  0  0  0  0  0  0  0
  1  2  2  0
  2  3  1  0
  3  4  2  0
  4  5  1  0
  1  6  1  0
  5  6  2  0
  7  8  1  0
  8  9  1  0
  9 10  2  0
  9 11  1  0
 11 12  1  0
 12 13  2  0
  7 14  2  0
 12 14  1  0
  1 15  1  0
  7 15  1  0
 14 16  1  0
 16 17  1  1
 16 18  1  0
  8 19  1  0
 19 20  1  0
 20 21  1  0
 21 22  1  0
 22 23  2  0
 23 24  1  0
 24 25  2  0
 25 26  1  0
 22 27  1  0
 26 27  2  0
M  END
$$$$
