1JLA_TNK_A_999
     RDKit          3D

 27 29  0  0  0  0  0  0  0  0999 V2000
   -1.4766  -34.2132   28.0339 C   0  0  0  0  0  0  0  0  0  0  0  0
   -2.5309  -34.8211   28.7417 C   0  0  0  0  0  0  0  0  0  0  0  0
   -3.8324  -34.7730   28.3120 C   0  0  0  0  0  0  0  0  0  0  0  0
   -4.1800  -34.1218   27.1551 C   0  0  0  0  0  0  0  0  0  0  0  0
   -3.1769  -33.5194   26.4423 C   0  0  0  0  0  0  0  0  0  0  0  0
   -1.8460  -33.5710   26.8862 C   0  0  0  0  0  0  0  0  0  0  0  0
    0.9897  -34.2631   27.6332 C   0  0  0  0  0  0  0  0  0  0  0  0
    0.8452  -34.6168   26.3439 N   0  0  0  0  0  0  0  0  0  0  0  0
    1.9038  -34.6482   25.4749 C   0  0  0  0  0  0  0  0  0  0  0  0
    1.7485  -34.9829   24.2704 O   0  0  0  0  0  0  0  0  0  0  0  0
    3.1488  -34.3269   25.8548 N   0  0  0  0  0  0  0  0  0  0  0  0
    3.3470  -33.9653   27.1268 C   0  0  0  0  0  0  0  0  0  0  0  0
    4.5181  -33.6667   27.4645 O   0  0  0  0  0  0  0  0  0  0  0  0
    2.2756  -33.9261   28.0315 C   0  0  0  0  0  0  0  0  0  0  0  0
   -0.1164  -34.3072   28.5928 C   0  0  0  0  0  0  0  0  0  0  0  0
    2.5997  -33.3987   29.3752 C   0  0  2  0  0  0  0  0  0  0  0  0
    2.8316  -31.8887   29.2075 C   0  0  0  0  0  0  0  0  0  0  0  0
    3.8951  -33.9979   29.8390 C   0  0  0  0  0  0  0  0  0  0  0  0
   -0.4350  -34.9632   25.7475 C   0  0  0  0  0  0  0  0  0  0  0  0
   -0.2195  -36.0689   24.9037 O   0  0  0  0  0  0  0  0  0  0  0  0
   -1.3602  -36.4471   24.2037 C   0  0  0  0  0  0  0  0  0  0  0  0
   -0.9531  -37.2743   23.0133 C   0  0  0  0  0  0  0  0  0  0  0  0
    0.2285  -37.9766   22.9790 C   0  0  0  0  0  0  0  0  0  0  0  0
    0.5446  -38.7255   21.8641 C   0  0  0  0  0  0  0  0  0  0  0  0
   -0.3406  -38.7582   20.7879 C   0  0  0  0  0  0  0  0  0  0  0  0
   -1.5377  -38.0537   20.8080 C   0  0  0  0  0  0  0  0  0  0  0  0
   -1.8208  -37.3210   21.9291 C   0  0  0  0  0  0  0  0  0  0  0  0
  1  2  2  0
  2  3  1  0
  3  4  2  0
  4  5  1  0
  1  6  1  0
  5  6  2  0
  7  8  1  0
  8  9  1  0
  9 10  2  0
  9 11  1  0
 11 12  1  0
 12 13  2  0
  7 14  2  0
 12 14  1  0
  1 15  1  0
  7 15  1  0
 14 16  1  0
 16 17  1  6
 16 18  1  0
  8 19  1  0
 19 20  1  0
 20 21  1  0
 21 22  1  0
 22 23  2  0
 23 24  1  0
 24 25  2  0
 25 26  1  0
 22 27  1  0
 26 27  2  0
M  END
$$$$
