1JLA_TNK_A_999
     RDKit          3D

 27 29  0  0  0  0  0  0  0  0999 V2000
   57.9707  -12.5914   15.4436 C   0  0  0  0  0  0  0  0  0  0  0  0
   57.9118  -12.6588   14.0386 C   0  0  0  0  0  0  0  0  0  0  0  0
   57.0715  -11.8688   13.2965 C   0  0  0  0  0  0  0  0  0  0  0  0
   56.2334  -10.9597   13.8918 C   0  0  0  0  0  0  0  0  0  0  0  0
   56.2662  -10.8691   15.2586 C   0  0  0  0  0  0  0  0  0  0  0  0
   57.1279  -11.6801   16.0141 C   0  0  0  0  0  0  0  0  0  0  0  0
   58.8124  -14.9182   15.7947 C   0  0  0  0  0  0  0  0  0  0  0  0
   57.6605  -15.6106   15.8401 N   0  0  0  0  0  0  0  0  0  0  0  0
   57.6096  -16.9558   15.5861 C   0  0  0  0  0  0  0  0  0  0  0  0
   56.5206  -17.5875   15.6342 O   0  0  0  0  0  0  0  0  0  0  0  0
   58.7038  -17.6653   15.2749 N   0  0  0  0  0  0  0  0  0  0  0  0
   59.8756  -17.0240   15.2137 C   0  0  0  0  0  0  0  0  0  0  0  0
   60.8889  -17.7033   14.9199 O   0  0  0  0  0  0  0  0  0  0  0  0
   59.9480  -15.6466   15.4696 C   0  0  0  0  0  0  0  0  0  0  0  0
   58.8946  -13.4986   16.1469 C   0  0  0  0  0  0  0  0  0  0  0  0
   61.2762  -15.0312   15.2559 C   0  0  2  0  0  0  0  0  0  0  0  0
   61.6933  -14.4143   16.6003 C   0  0  0  0  0  0  0  0  0  0  0  0
   61.1437  -13.9052   14.2727 C   0  0  0  0  0  0  0  0  0  0  0  0
   56.3713  -15.0019   16.1266 C   0  0  0  0  0  0  0  0  0  0  0  0
   55.9792  -15.4324   17.4080 O   0  0  0  0  0  0  0  0  0  0  0  0
   54.7754  -14.8731   17.8230 C   0  0  0  0  0  0  0  0  0  0  0  0
   54.6690  -14.9939   19.3200 C   0  0  0  0  0  0  0  0  0  0  0  0
   55.6996  -14.6396   20.1585 C   0  0  0  0  0  0  0  0  0  0  0  0
   55.5413  -14.7632   21.5236 C   0  0  0  0  0  0  0  0  0  0  0  0
   54.3370  -15.2467   22.0321 C   0  0  0  0  0  0  0  0  0  0  0  0
   53.2872  -15.6089   21.1975 C   0  0  0  0  0  0  0  0  0  0  0  0
   53.4771  -15.4738   19.8485 C   0  0  0  0  0  0  0  0  0  0  0  0
  1  2  2  0
  2  3  1  0
  3  4  2  0
  4  5  1  0
  1  6  1  0
  5  6  2  0
  7  8  1  0
  8  9  1  0
  9 10  2  0
  9 11  1  0
 11 12  1  0
 12 13  2  0
  7 14  2  0
 12 14  1  0
  1 15  1  0
  7 15  1  0
 14 16  1  0
 16 17  1  1
 16 18  1  0
  8 19  1  0
 19 20  1  0
 20 21  1  0
 21 22  1  0
 22 23  2  0
 23 24  1  0
 24 25  2  0
 25 26  1  0
 22 27  1  0
 26 27  2  0
M  END
$$$$
