1JLA_TNK_A_999
     RDKit          3D

 27 29  0  0  0  0  0  0  0  0999 V2000
    5.0693  -22.5886   20.1862 C   0  0  0  0  0  0  0  0  0  0  0  0
    6.4576  -22.7883   20.3075 C   0  0  0  0  0  0  0  0  0  0  0  0
    7.0137  -24.0329   20.4581 C   0  0  0  0  0  0  0  0  0  0  0  0
    6.2366  -25.1633   20.4988 C   0  0  0  0  0  0  0  0  0  0  0  0
    4.8807  -25.0034   20.3834 C   0  0  0  0  0  0  0  0  0  0  0  0
    4.3159  -23.7274   20.2297 C   0  0  0  0  0  0  0  0  0  0  0  0
    5.5457  -20.1371   20.2787 C   0  0  0  0  0  0  0  0  0  0  0  0
    5.8073  -19.6470   21.5034 N   0  0  0  0  0  0  0  0  0  0  0  0
    6.6590  -18.5918   21.6981 C   0  0  0  0  0  0  0  0  0  0  0  0
    6.8911  -18.1462   22.8534 O   0  0  0  0  0  0  0  0  0  0  0  0
    7.2856  -17.9832   20.6810 N   0  0  0  0  0  0  0  0  0  0  0  0
    7.0620  -18.4334   19.4419 C   0  0  0  0  0  0  0  0  0  0  0  0
    7.6577  -17.8529   18.5023 O   0  0  0  0  0  0  0  0  0  0  0  0
    6.1941  -19.5134   19.2222 C   0  0  0  0  0  0  0  0  0  0  0  0
    4.5731  -21.2081   20.0482 C   0  0  0  0  0  0  0  0  0  0  0  0
    6.1205  -19.9931   17.8247 C   0  0  2  0  0  0  0  0  0  0  0  0
    7.5521  -20.3770   17.4186 C   0  0  0  0  0  0  0  0  0  0  0  0
    5.6964  -18.8593   16.9376 C   0  0  0  0  0  0  0  0  0  0  0  0
    5.2460  -20.2022   22.7245 C   0  0  0  0  0  0  0  0  0  0  0  0
    4.0454  -19.5153   22.9849 O   0  0  0  0  0  0  0  0  0  0  0  0
    3.2889  -20.1079   23.9902 C   0  0  0  0  0  0  0  0  0  0  0  0
    2.1322  -19.2057   24.3296 C   0  0  0  0  0  0  0  0  0  0  0  0
    1.8636  -18.8132   25.6197 C   0  0  0  0  0  0  0  0  0  0  0  0
    0.7947  -17.9772   25.8696 C   0  0  0  0  0  0  0  0  0  0  0  0
    0.0023  -17.5432   24.8082 C   0  0  0  0  0  0  0  0  0  0  0  0
    0.2612  -17.9316   23.4998 C   0  0  0  0  0  0  0  0  0  0  0  0
    1.3291  -18.7611   23.2866 C   0  0  0  0  0  0  0  0  0  0  0  0
  1  2  2  0
  2  3  1  0
  3  4  2  0
  4  5  1  0
  1  6  1  0
  5  6  2  0
  7  8  1  0
  8  9  1  0
  9 10  2  0
  9 11  1  0
 11 12  1  0
 12 13  2  0
  7 14  2  0
 12 14  1  0
  1 15  1  0
  7 15  1  0
 14 16  1  0
 16 17  1  6
 16 18  1  0
  8 19  1  0
 19 20  1  0
 20 21  1  0
 21 22  1  0
 22 23  2  0
 23 24  1  0
 24 25  2  0
 25 26  1  0
 22 27  1  0
 26 27  2  0
M  END
$$$$
