1JLA_TNK_A_999
     RDKit          3D

 27 29  0  0  0  0  0  0  0  0999 V2000
   17.8131  -32.4053   23.5696 C   0  0  0  0  0  0  0  0  0  0  0  0
   18.8489  -32.7346   22.6748 C   0  0  0  0  0  0  0  0  0  0  0  0
   18.6484  -32.8458   21.3226 C   0  0  0  0  0  0  0  0  0  0  0  0
   17.4122  -32.6394   20.7637 C   0  0  0  0  0  0  0  0  0  0  0  0
   16.3820  -32.3172   21.6076 C   0  0  0  0  0  0  0  0  0  0  0  0
   16.5920  -32.2047   22.9911 C   0  0  0  0  0  0  0  0  0  0  0  0
   17.2243  -31.5332   25.8364 C   0  0  0  0  0  0  0  0  0  0  0  0
   17.0872  -30.2037   25.6887 N   0  0  0  0  0  0  0  0  0  0  0  0
   16.2974  -29.4565   26.5223 C   0  0  0  0  0  0  0  0  0  0  0  0
   16.1821  -28.2115   26.3683 O   0  0  0  0  0  0  0  0  0  0  0  0
   15.6110  -30.0039   27.5356 N   0  0  0  0  0  0  0  0  0  0  0  0
   15.7105  -31.3239   27.7250 C   0  0  0  0  0  0  0  0  0  0  0  0
   15.0603  -31.8194   28.6771 O   0  0  0  0  0  0  0  0  0  0  0  0
   16.5133  -32.1060   26.8815 C   0  0  0  0  0  0  0  0  0  0  0  0
   18.1308  -32.3304   25.0066 C   0  0  0  0  0  0  0  0  0  0  0  0
   16.4489  -33.5648   27.1190 C   0  0  2  0  0  0  0  0  0  0  0  0
   17.8703  -34.0087   27.4995 C   0  0  0  0  0  0  0  0  0  0  0  0
   16.0967  -34.2567   25.8347 C   0  0  0  0  0  0  0  0  0  0  0  0
   17.7280  -29.4460   24.6258 C   0  0  0  0  0  0  0  0  0  0  0  0
   18.8868  -28.8594   25.1683 O   0  0  0  0  0  0  0  0  0  0  0  0
   19.0963  -27.5592   24.7213 C   0  0  0  0  0  0  0  0  0  0  0  0
   19.1131  -26.6303   25.9062 C   0  0  0  0  0  0  0  0  0  0  0  0
   18.3426  -25.4925   25.9558 C   0  0  0  0  0  0  0  0  0  0  0  0
   18.3922  -24.6835   27.0724 C   0  0  0  0  0  0  0  0  0  0  0  0
   19.2244  -25.0329   28.1345 C   0  0  0  0  0  0  0  0  0  0  0  0
   20.0087  -26.1790   28.0986 C   0  0  0  0  0  0  0  0  0  0  0  0
   19.9357  -26.9594   26.9764 C   0  0  0  0  0  0  0  0  0  0  0  0
  1  2  2  0
  2  3  1  0
  3  4  2  0
  4  5  1  0
  1  6  1  0
  5  6  2  0
  7  8  1  0
  8  9  1  0
  9 10  2  0
  9 11  1  0
 11 12  1  0
 12 13  2  0
  7 14  2  0
 12 14  1  0
  1 15  1  0
  7 15  1  0
 14 16  1  0
 16 17  1  6
 16 18  1  0
  8 19  1  0
 19 20  1  0
 20 21  1  0
 21 22  1  0
 22 23  2  0
 23 24  1  0
 24 25  2  0
 25 26  1  0
 22 27  1  0
 26 27  2  0
M  END
$$$$
