1JLA_TNK_A_999
     RDKit          3D

 27 29  0  0  0  0  0  0  0  0999 V2000
   -1.6752  -10.6480   38.4407 C   0  0  0  0  0  0  0  0  0  0  0  0
   -0.8592  -10.1540   39.4762 C   0  0  0  0  0  0  0  0  0  0  0  0
   -0.2379   -8.9333   39.4074 C   0  0  0  0  0  0  0  0  0  0  0  0
   -0.3806   -8.1189   38.3120 C   0  0  0  0  0  0  0  0  0  0  0  0
   -1.1687   -8.5705   37.2862 C   0  0  0  0  0  0  0  0  0  0  0  0
   -1.8025   -9.8209   37.3610 C   0  0  0  0  0  0  0  0  0  0  0  0
   -3.6046  -12.1769   38.0100 C   0  0  0  0  0  0  0  0  0  0  0  0
   -4.7120  -11.5874   38.4942 N   0  0  0  0  0  0  0  0  0  0  0  0
   -5.9557  -11.8403   37.9786 C   0  0  0  0  0  0  0  0  0  0  0  0
   -6.9818  -11.2786   38.4463 O   0  0  0  0  0  0  0  0  0  0  0  0
   -6.1463  -12.6895   36.9588 N   0  0  0  0  0  0  0  0  0  0  0  0
   -5.0771  -13.3011   36.4383 C   0  0  0  0  0  0  0  0  0  0  0  0
   -5.2739  -14.0914   35.4837 O   0  0  0  0  0  0  0  0  0  0  0  0
   -3.7953  -13.0544   36.9520 C   0  0  0  0  0  0  0  0  0  0  0  0
   -2.2809  -11.9811   38.6063 C   0  0  0  0  0  0  0  0  0  0  0  0
   -2.6837  -13.6981   36.2179 C   0  0  2  0  0  0  0  0  0  0  0  0
   -2.7579  -13.1817   34.7723 C   0  0  0  0  0  0  0  0  0  0  0  0
   -2.9177  -15.1798   36.1726 C   0  0  0  0  0  0  0  0  0  0  0  0
   -4.6936  -10.6137   39.5741 C   0  0  0  0  0  0  0  0  0  0  0  0
   -4.7574  -11.3284   40.7850 O   0  0  0  0  0  0  0  0  0  0  0  0
   -4.1106  -10.6803   41.8317 C   0  0  0  0  0  0  0  0  0  0  0  0
   -5.1234  -10.3205   42.8861 C   0  0  0  0  0  0  0  0  0  0  0  0
   -6.4447  -10.6883   42.7882 C   0  0  0  0  0  0  0  0  0  0  0  0
   -7.3260  -10.3383   43.7905 C   0  0  0  0  0  0  0  0  0  0  0  0
   -6.8622   -9.6156   44.8884 C   0  0  0  0  0  0  0  0  0  0  0  0
   -5.5304   -9.2368   45.0009 C   0  0  0  0  0  0  0  0  0  0  0  0
   -4.6827   -9.6002   43.9894 C   0  0  0  0  0  0  0  0  0  0  0  0
  1  2  2  0
  2  3  1  0
  3  4  2  0
  4  5  1  0
  1  6  1  0
  5  6  2  0
  7  8  1  0
  8  9  1  0
  9 10  2  0
  9 11  1  0
 11 12  1  0
 12 13  2  0
  7 14  2  0
 12 14  1  0
  1 15  1  0
  7 15  1  0
 14 16  1  0
 16 17  1  6
 16 18  1  0
  8 19  1  0
 19 20  1  0
 20 21  1  0
 21 22  1  0
 22 23  2  0
 23 24  1  0
 24 25  2  0
 25 26  1  0
 22 27  1  0
 26 27  2  0
M  END
$$$$
