7VB8_STL_B_401
     RDKit          3D

 17 18  0  0  0  0  0  0  0  0999 V2000
   -5.1928   32.9581  -18.2188 C   0  0  0  0  0  0  0  0  0  0  0  0
   -4.5931   33.2208  -19.4354 C   0  0  0  0  0  0  0  0  0  0  0  0
   -4.2820   32.1603  -20.2843 C   0  0  0  0  0  0  0  0  0  0  0  0
   -4.5560   30.8401  -19.9179 C   0  0  0  0  0  0  0  0  0  0  0  0
   -5.2098   30.5921  -18.7043 C   0  0  0  0  0  0  0  0  0  0  0  0
   -5.5138   31.6530  -17.8687 C   0  0  0  0  0  0  0  0  0  0  0  0
   -5.5127   29.2367  -18.2195 C   0  0  0  0  0  0  0  0  0  0  0  0
   -5.2135   28.1029  -18.8039 C   0  0  0  0  0  0  0  0  0  0  0  0
   -5.5124   26.7557  -18.3163 C   0  0  0  0  0  0  0  0  0  0  0  0
   -4.9292   25.6331  -18.8999 C   0  0  0  0  0  0  0  0  0  0  0  0
   -5.1749   24.3585  -18.4115 C   0  0  0  0  0  0  0  0  0  0  0  0
   -6.0702   24.1706  -17.3644 C   0  0  0  0  0  0  0  0  0  0  0  0
   -6.6368   25.2694  -16.7595 C   0  0  0  0  0  0  0  0  0  0  0  0
   -6.3649   26.5317  -17.2331 C   0  0  0  0  0  0  0  0  0  0  0  0
   -6.3248   22.9169  -16.8747 O   0  0  0  0  0  0  0  0  0  0  0  0
   -3.5769   32.4480  -21.4339 O   0  0  0  0  0  0  0  0  0  0  0  0
   -5.5653   33.9751  -17.3537 O   0  0  0  0  0  0  0  0  0  0  0  0
  1  2  2  0
  2  3  1  0
  3  4  2  0
  4  5  1  0
  1  6  1  0
  5  6  2  0
  5  7  1  0
  7  8  2  0
  8  9  1  0
  9 10  2  0
 10 11  1  0
 11 12  2  0
 12 13  1  0
  9 14  1  0
 13 14  2  0
 12 15  1  0
  3 16  1  0
  1 17  1  0
M  END
