
     RDKit          3D

 21 21  0  0  0  0  0  0  0  0999 V2000
   14.0070  -24.2742  -23.9814 C   0  0  0  0  0  0  0  0  0  0  0  0
   15.2731  -23.3931  -24.1560 C   0  0  1  0  0  0  0  0  0  0  0  0
   16.5028  -24.0542  -23.5479 C   0  0  0  0  0  0  0  0  0  0  0  0
   17.6912  -23.1083  -23.6420 C   0  0  1  0  0  0  0  0  0  0  0  0
   17.3839  -21.7290  -22.9989 C   0  0  2  0  0  0  0  0  0  0  0  0
   16.0778  -21.1814  -23.6362 C   0  0  2  0  0  0  0  0  0  0  0  0
   15.5639  -19.8694  -23.0097 C   0  0  1  0  0  0  0  0  0  0  0  0
   14.0277  -19.8201  -22.8120 C   0  0  1  0  0  0  0  0  0  0  0  0
   13.5044  -18.6363  -21.9840 C   0  0  0  0  0  0  0  0  0  0  0  0
   19.2263  -20.2682  -22.1527 C   0  0  0  0  0  0  0  0  0  0  0  0
   19.2353  -18.7639  -22.2230 C   0  0  0  0  0  0  0  0  0  0  0  0
   18.5630  -20.8655  -23.2021 N   0  0  0  0  0  0  0  0  0  0  0  0
   13.4466  -24.4997  -22.9150 O   0  0  0  0  0  0  0  0  0  0  0  0
   13.5576  -24.8548  -25.1131 O   0  0  0  0  0  0  0  0  0  0  0  0
   15.5011  -23.1666  -25.5431 O   0  0  0  0  0  0  0  0  0  0  0  0
   18.8391  -23.6897  -23.0094 O   0  0  0  0  0  0  0  0  0  0  0  0
   15.0256  -22.1559  -23.5156 O   0  0  0  0  0  0  0  0  0  0  0  0
   16.2047  -19.6252  -21.7468 O   0  0  0  0  0  0  0  0  0  0  0  0
   13.4409  -19.7602  -24.1295 O   0  0  0  0  0  0  0  0  0  0  0  0
   14.3764  -17.5092  -22.0928 O   0  0  0  0  0  0  0  0  0  0  0  0
   19.7723  -20.8731  -21.2385 O   0  0  0  0  0  0  0  0  0  0  0  0
  1  2  1  0
  2  3  1  0
  3  4  1  0
  4  5  1  0
  5  6  1  0
  6  7  1  0
  7  8  1  0
  8  9  1  0
 10 11  1  0
  5 12  1  6
 10 12  1  0
  1 13  2  0
  1 14  1  0
  2 15  1  6
  4 16  1  1
  2 17  1  0
  6 17  1  1
  7 18  1  1
  8 19  1  6
  9 20  1  0
 10 21  2  0
M  END
