8DKO_TFB_A_2002
     RDKit          3D

  8  8  0  0  0  0  0  0  0  0999 V2000
   18.4648   12.7801   34.6061 O   0  0  0  0  0  0  0  0  0  0  0  0
   19.3729   13.4051   35.4994 C   0  0  2  0  0  0  0  0  0  0  0  0
   18.5793   13.6537   36.7845 C   0  0  0  0  0  0  0  0  0  0  0  0
   17.5683   12.9399   37.0400 O   0  0  0  0  0  0  0  0  0  0  0  0
   19.8502   14.7116   34.9478 C   0  0  0  0  0  0  0  0  0  0  0  0
   18.8787   15.0412   33.8509 C   0  0  0  0  0  0  0  0  0  0  0  0
   18.0904   13.7515   33.6089 C   0  0  0  0  0  0  0  0  0  0  0  0
   18.9239   14.5778   37.5629 O   0  0  0  0  0  0  0  0  0  0  0  0
  1  2  1  0
  2  3  1  1
  3  4  1  0
  2  5  1  0
  5  6  1  0
  1  7  1  0
  6  7  1  0
  3  8  2  0
M  END
