7DIN_MPO_A_201
     RDKit          3D

 13 13  0  0  0  0  0  0  0  0999 V2000
   35.5850   -6.2287  -13.1270 S   0  0  1  0  0  0  0  0  0  0  0  0
   34.4078   -5.3976  -13.1275 O   0  0  0  0  0  0  0  0  0  0  0  0
   36.6009   -5.6891  -12.2385 O   0  0  0  0  0  0  0  0  0  0  0  0
   29.5974   -8.4585   -9.1369 O   0  0  0  0  0  0  0  0  0  0  0  0
   32.0109   -8.2818  -10.6547 N   0  0  0  0  0  0  0  0  0  0  0  0
   35.1170   -7.7762  -12.4254 C   0  0  0  0  0  0  0  0  0  0  0  0
   36.1166   -6.5153  -14.4365 O   0  0  0  0  0  0  0  0  0  0  0  0
   34.3333   -7.6090  -11.1542 C   0  0  0  0  0  0  0  0  0  0  0  0
   33.3554   -8.7481  -11.0132 C   0  0  0  0  0  0  0  0  0  0  0  0
   31.9468   -7.8867   -9.2440 C   0  0  0  0  0  0  0  0  0  0  0  0
   30.5520   -7.4263   -8.9068 C   0  0  0  0  0  0  0  0  0  0  0  0
   29.6319   -8.8290  -10.5166 C   0  0  0  0  0  0  0  0  0  0  0  0
   31.0035   -9.3128  -10.9268 C   0  0  0  0  0  0  0  0  0  0  0  0
  1  2  2  0
  1  3  2  0
  1  6  1  0
  1  7  1  6
  6  8  1  0
  5  9  1  0
  8  9  1  0
  5 10  1  0
  4 11  1  0
 10 11  1  0
  4 12  1  0
  5 13  1  0
 12 13  1  0
M  END
