7WKL_CAQ_A_401
     RDKit          3D

 14 14  0  0  0  0  0  0  0  0999 V2000
   29.2483    6.9713   69.2397 C   0  0  0  0  0  0  0  0  0  0  0  0
   29.2872    8.0449   70.1323 C   0  0  0  0  0  0  0  0  0  0  0  0
   28.1041    8.5675   70.6711 C   0  0  0  0  0  0  0  0  0  0  0  0
   28.2088    9.6411   71.5578 O   0  0  0  0  0  0  0  0  0  0  0  0
   26.8605    7.9968   70.3028 C   0  0  0  0  0  0  0  0  0  0  0  0
   25.6406    8.4623   70.7972 O   0  0  0  0  0  0  0  0  0  0  0  0
   26.8366    6.9201   69.4064 C   0  0  0  0  0  0  0  0  0  0  0  0
   28.0237    6.4093   68.8771 C   0  0  0  0  0  0  0  0  0  0  0  0
   30.1680    6.5750   68.8293 H   0  0  0  0  0  0  0  0  0  0  0  0
   30.2422    8.4744   70.4077 H   0  0  0  0  0  0  0  0  0  0  0  0
   27.4178   10.0876   71.9991 H   0  0  0  0  0  0  0  0  0  0  0  0
   25.5511    9.2307   71.4462 H   0  0  0  0  0  0  0  0  0  0  0  0
   25.8911    6.4774   69.1191 H   0  0  0  0  0  0  0  0  0  0  0  0
   27.9941    5.5773   68.1854 H   0  0  0  0  0  0  0  0  0  0  0  0
  1  2  2  0
  2  3  1  0
  3  4  1  0
  3  5  2  0
  5  6  1  0
  5  7  1  0
  1  8  1  0
  7  8  2  0
  1  9  1  0
  2 10  1  0
  4 11  1  0
  6 12  1  0
  7 13  1  0
  8 14  1  0
M  END
