7TBU_S3P_A_902
     RDKit          3D

 16 16  0  0  0  0  0  0  0  0999 V2000
   19.6832  104.1818   11.4372 C   0  0  0  0  0  0  0  0  0  0  0  0
   20.4899  103.8120   12.4192 C   0  0  0  0  0  0  0  0  0  0  0  0
   21.9383  104.2272   12.4529 C   0  0  2  0  0  0  0  0  0  0  0  0
   21.9115  105.6412   11.8626 C   0  0  2  0  0  0  0  0  0  0  0  0
   21.5355  105.4693   10.4236 C   0  0  1  0  0  0  0  0  0  0  0  0
   20.1222  105.0268   10.2951 C   0  0  0  0  0  0  0  0  0  0  0  0
   18.2980  103.7316   11.4899 C   0  0  0  0  0  0  0  0  0  0  0  0
   22.6982  103.4202   11.6371 O   0  0  0  0  0  0  0  0  0  0  0  0
   23.1332  106.2758   11.9556 O   0  0  0  0  0  0  0  0  0  0  0  0
   21.7947  106.6760    9.7717 O   0  0  0  0  0  0  0  0  0  0  0  0
   17.8842  102.8763   12.5127 O   0  0  0  0  0  0  0  0  0  0  0  0
   17.4507  104.1003   10.6225 O   0  0  0  0  0  0  0  0  0  0  0  0
   23.4836  102.1800   12.4284 P   0  0  1  0  0  5  0  0  0  0  0  0
   23.2865  102.3854   13.9127 O   0  0  0  0  0  0  0  0  0  0  0  0
   22.8671  100.6590   12.0061 O   0  0  0  0  0  0  0  0  0  0  0  0
   25.1303  102.1629   12.0480 O   0  0  0  0  0  0  0  0  0  0  0  0
  1  2  2  0
  2  3  1  0
  3  4  1  0
  4  5  1  0
  6  1  1  6
  5  6  1  0
  1  7  1  0
  3  8  1  6
  4  9  1  6
  5 10  1  6
  7 11  1  0
  7 12  2  0
  8 13  1  0
 13 14  2  0
 13 15  1  6
 13 16  1  0
M  END
$$$$
