7ZXZ_K9R_B_201
     RDKit          3D

 62 65  0  0  0  0  0  0  0  0999 V2000
   49.9963  -21.4683    7.7698 N   0  0  0  0  0  0  0  0  0  0  0  0
   45.3622  -22.6372   12.5767 C   0  0  0  0  0  0  0  0  0  0  0  0
   44.8311  -23.8490   13.3021 C   0  0  0  0  0  0  0  0  0  0  0  0
   46.6442  -25.1957   12.4679 N   0  0  0  0  0  0  0  0  0  0  0  0
   45.8910  -24.8949   13.5341 C   0  0  0  0  0  0  0  0  0  0  0  0
   47.2904  -27.2414   10.6279 O   0  0  0  0  0  0  0  0  0  0  0  0
   48.0870  -22.6086    8.5227 C   0  0  1  0  0  0  0  0  0  0  0  0
   47.1491  -23.2766   10.8558 C   0  0  0  0  0  0  0  0  0  0  0  0
   46.8585  -22.7714   12.2327 C   0  0  0  0  0  0  0  0  0  0  0  0
   47.2960  -22.1766    9.7992 C   0  0  1  0  0  0  0  0  0  0  0  0
   48.1133  -20.0936    8.5297 C   0  0  0  0  0  0  0  0  0  0  0  0
   46.1292  -25.3385   14.6754 O   0  0  0  0  0  0  0  0  0  0  0  0
   48.5600  -21.3268    7.7510 C   0  0  1  0  0  0  0  0  0  0  0  0
   49.3609  -23.2510    8.8312 N   0  0  0  0  0  0  0  0  0  0  0  0
   48.1054  -20.6384   10.2729 S   0  0  0  0  0  0  0  0  0  0  0  0
   50.4292  -22.5589    8.3753 C   0  0  0  0  0  0  0  0  0  0  0  0
   51.5885  -22.9152    8.4658 O   0  0  0  0  0  0  0  0  0  0  0  0
   47.8875  -25.9059   12.6018 C   0  0  1  0  0  0  0  0  0  0  0  0
   48.1857  -26.4479   14.0126 C   0  0  0  0  0  0  0  0  0  0  0  0
   48.4251  -27.9246   13.8636 C   0  0  0  0  0  0  0  0  0  0  0  0
   48.9189  -28.6572   14.7063 O   0  0  0  0  0  0  0  0  0  0  0  0
   48.2645  -28.2821   12.5522 C   0  0  2  0  0  0  0  0  0  0  0  0
   47.7610  -27.1549   11.7459 C   0  0  0  0  0  0  0  0  0  0  0  0
   47.7775  -29.6240   12.0114 C   0  0  0  0  0  0  0  0  0  0  0  0
   48.6324  -30.7200   12.0008 C   0  0  0  0  0  0  0  0  0  0  0  0
   48.1893  -31.9813   11.6110 C   0  0  0  0  0  0  0  0  0  0  0  0
   49.1411  -33.1491   11.5533 C   0  0  0  0  0  0  0  0  0  0  0  0
   50.0937  -33.3282   13.1059 S   0  0  0  0  0  0  0  0  0  0  0  0
   46.8571  -32.1315   11.2389 C   0  0  0  0  0  0  0  0  0  0  0  0
   45.9870  -31.0469   11.2223 C   0  0  0  0  0  0  0  0  0  0  0  0
   46.4636  -29.7944   11.5989 C   0  0  0  0  0  0  0  0  0  0  0  0
   44.5575  -31.2153   10.7862 C   0  0  0  0  0  0  0  0  0  0  0  0
   44.7055  -32.5749    9.6188 S   0  0  0  0  0  0  0  0  0  0  0  0
   50.6026  -20.8067    7.3650 H   0  0  0  0  0  0  0  0  0  0  0  0
   44.8104  -22.5104   11.6687 H   0  0  0  0  0  0  0  0  0  0  0  0
   45.2493  -21.7924   13.2236 H   0  0  0  0  0  0  0  0  0  0  0  0
   44.4426  -23.5385   14.2495 H   0  0  0  0  0  0  0  0  0  0  0  0
   44.0716  -24.2872   12.6891 H   0  0  0  0  0  0  0  0  0  0  0  0
   46.3395  -24.9243   11.5719 H   0  0  0  0  0  0  0  0  0  0  0  0
   47.4237  -23.2575    7.9900 H   0  0  0  0  0  0  0  0  0  0  0  0
   48.0619  -23.8338   10.8888 H   0  0  0  0  0  0  0  0  0  0  0  0
   46.3092  -23.8718   10.5640 H   0  0  0  0  0  0  0  0  0  0  0  0
   47.3007  -23.4477   12.9343 H   0  0  0  0  0  0  0  0  0  0  0  0
   47.2654  -21.7829   12.2799 H   0  0  0  0  0  0  0  0  0  0  0  0
   46.2526  -22.0062    9.6345 H   0  0  0  0  0  0  0  0  0  0  0  0
   48.8010  -19.2862    8.3880 H   0  0  0  0  0  0  0  0  0  0  0  0
   47.1582  -19.7323    8.2101 H   0  0  0  0  0  0  0  0  0  0  0  0
   48.1690  -21.2230    6.7604 H   0  0  0  0  0  0  0  0  0  0  0  0
   49.4346  -24.1016    9.3213 H   0  0  0  0  0  0  0  0  0  0  0  0
   48.6575  -25.2116   12.3371 H   0  0  0  0  0  0  0  0  0  0  0  0
   49.0554  -25.9716   14.4148 H   0  0  0  0  0  0  0  0  0  0  0  0
   47.3723  -26.2544   14.6802 H   0  0  0  0  0  0  0  0  0  0  0  0
   49.2923  -28.5594   12.4444 H   0  0  0  0  0  0  0  0  0  0  0  0
   49.6159  -30.5964   12.2879 H   0  0  0  0  0  0  0  0  0  0  0  0
   48.5802  -34.0450   11.3860 H   0  0  0  0  0  0  0  0  0  0  0  0
   49.8337  -32.9741   10.7568 H   0  0  0  0  0  0  0  0  0  0  0  0
   49.2385  -33.5522   14.1393 H   0  0  0  0  0  0  0  0  0  0  0  0
   46.5083  -33.0650   10.9704 H   0  0  0  0  0  0  0  0  0  0  0  0
   45.8303  -28.9801   11.5709 H   0  0  0  0  0  0  0  0  0  0  0  0
   43.9242  -31.4726   11.6094 H   0  0  0  0  0  0  0  0  0  0  0  0
   44.1167  -30.3307   10.3762 H   0  0  0  0  0  0  0  0  0  0  0  0
   45.2746  -33.6439   10.2378 H   0  0  0  0  0  0  0  0  0  0  0  0
  2  3  1  0
  3  5  1  0
  4  5  1  0
  8  9  1  0
  2  9  1  0
  7 10  1  0
 10  8  1  0
  5 12  2  0
  1 13  1  0
 13 11  1  0
  7 13  1  0
  7 14  1  0
 11 15  1  0
 10 15  1  0
  1 16  1  0
 14 16  1  0
 16 17  2  0
 18  4  1  0
 18 19  1  0
 19 20  1  0
 20 21  2  0
 20 22  1  0
 18 23  1  0
 22 23  1  0
  6 23  2  0
 22 24  1  0
 24 25  4  0
 25 26  4  0
 26 27  1  0
 27 28  1  0
 26 29  4  0
 29 30  4  0
 24 31  4  0
 30 31  4  0
 30 32  1  0
 32 33  1  0
  1 34  1  0
  2 35  1  0
  2 36  1  0
  3 37  1  0
  3 38  1  0
  4 39  1  0
  7 40  1  1
  8 41  1  0
  8 42  1  0
  9 43  1  0
  9 44  1  0
 10 45  1  1
 11 46  1  0
 11 47  1  0
 13 48  1  1
 14 49  1  0
 18 50  1  1
 19 51  1  0
 19 52  1  0
 22 53  1  1
 25 54  1  0
 27 55  1  0
 27 56  1  0
 28 57  1  0
 29 58  1  0
 31 59  1  0
 32 60  1  0
 32 61  1  0
 33 62  1  0
M  END
