1J3J_CP6_A_609
     RDKit          3D

 17 18  0  0  0  0  0  0  0  0999 V2000
   23.8863    5.3737   26.1380 N   0  0  0  0  0  0  0  0  0  0  0  0
   24.3042    5.1636   27.4146 C   0  0  0  0  0  0  0  0  0  0  0  0
   24.0623    6.6051   25.5968 C   0  0  0  0  0  0  0  0  0  0  0  0
   24.6511    7.6364   26.3092 C   0  0  0  0  0  0  0  0  0  0  0  0
   25.0667    7.4023   27.6001 C   0  0  0  0  0  0  0  0  0  0  0  0
   24.8797    6.1848   28.1013 N   0  0  0  0  0  0  0  0  0  0  0  0
   24.8046    8.9228   25.6630 C   0  0  0  0  0  0  0  0  0  0  0  0
   23.7739    9.8495   25.7170 C   0  0  0  0  0  0  0  0  0  0  0  0
   23.9124   11.0946   25.0916 C   0  0  0  0  0  0  0  0  0  0  0  0
   25.0722   11.4016   24.4220 C   0  0  0  0  0  0  0  0  0  0  0  0
   26.0965   10.4790   24.3688 C   0  0  0  0  0  0  0  0  0  0  0  0
   25.9655    9.2526   24.9824 C   0  0  0  0  0  0  0  0  0  0  0  0
   23.6274    6.8494   24.2555 N   0  0  0  0  0  0  0  0  0  0  0  0
   24.1292    3.8758   27.9965 N   0  0  0  0  0  0  0  0  0  0  0  0
   25.6964    8.4636   28.4103 C   0  0  0  0  0  0  0  0  0  0  0  0
   26.1496    8.0253   29.7720 C   0  0  0  0  0  0  0  0  0  0  0  0
   25.2646   12.9563   23.6318 Cl  0  0  0  0  0  0  0  0  0  0  0  0
  1  2  2  0
  1  3  1  0
  3  4  2  0
  4  5  1  0
  2  6  1  0
  5  6  2  0
  4  7  1  0
  7  8  2  0
  8  9  1  0
  9 10  2  0
 10 11  1  0
  7 12  1  0
 11 12  2  0
  3 13  1  0
  2 14  1  0
  5 15  1  0
 15 16  1  0
 10 17  1  0
M  END
$$$$
