1J3J_CP6_A_609
     RDKit          3D

 17 18  0  0  0  0  0  0  0  0999 V2000
   35.9705  -10.4369   18.9320 N   0  0  0  0  0  0  0  0  0  0  0  0
   36.1416   -9.9483   17.6749 C   0  0  0  0  0  0  0  0  0  0  0  0
   35.0589   -9.8371   19.7379 C   0  0  0  0  0  0  0  0  0  0  0  0
   34.3102   -8.7533   19.3105 C   0  0  0  0  0  0  0  0  0  0  0  0
   34.4993   -8.2745   18.0342 C   0  0  0  0  0  0  0  0  0  0  0  0
   35.4004   -8.8843   17.2696 N   0  0  0  0  0  0  0  0  0  0  0  0
   33.3568   -8.1672   20.2287 C   0  0  0  0  0  0  0  0  0  0  0  0
   33.8010   -7.5871   21.4078 C   0  0  0  0  0  0  0  0  0  0  0  0
   32.8853   -7.0213   22.3033 C   0  0  0  0  0  0  0  0  0  0  0  0
   31.5420   -7.0392   22.0150 C   0  0  0  0  0  0  0  0  0  0  0  0
   31.1014   -7.6166   20.8421 C   0  0  0  0  0  0  0  0  0  0  0  0
   31.9979   -8.1748   19.9577 C   0  0  0  0  0  0  0  0  0  0  0  0
   34.8644  -10.3331   21.0661 N   0  0  0  0  0  0  0  0  0  0  0  0
   37.0926  -10.5683   16.8154 N   0  0  0  0  0  0  0  0  0  0  0  0
   33.7343   -7.1195   17.5244 C   0  0  0  0  0  0  0  0  0  0  0  0
   34.0262   -6.7563   16.0980 C   0  0  0  0  0  0  0  0  0  0  0  0
   30.3792   -6.3356   23.1246 Cl  0  0  0  0  0  0  0  0  0  0  0  0
  1  2  2  0
  1  3  1  0
  3  4  2  0
  4  5  1  0
  2  6  1  0
  5  6  2  0
  4  7  1  0
  7  8  2  0
  8  9  1  0
  9 10  2  0
 10 11  1  0
  7 12  1  0
 11 12  2  0
  3 13  1  0
  2 14  1  0
  5 15  1  0
 15 16  1  0
 10 17  1  0
M  END
$$$$
