1J3J_CP6_A_609
     RDKit          3D

 17 18  0  0  0  0  0  0  0  0999 V2000
   26.9694   21.9131   39.9325 N   0  0  0  0  0  0  0  0  0  0  0  0
   26.8531   23.1929   39.4887 C   0  0  0  0  0  0  0  0  0  0  0  0
   25.8432   21.1653   40.0453 C   0  0  0  0  0  0  0  0  0  0  0  0
   24.5962   21.6731   39.7214 C   0  0  0  0  0  0  0  0  0  0  0  0
   24.5009   22.9713   39.2743 C   0  0  0  0  0  0  0  0  0  0  0  0
   25.6233   23.6776   39.1752 N   0  0  0  0  0  0  0  0  0  0  0  0
   23.4408   20.8134   39.8680 C   0  0  0  0  0  0  0  0  0  0  0  0
   23.0188   20.4342   41.1338 C   0  0  0  0  0  0  0  0  0  0  0  0
   21.9046   19.5998   41.2846 C   0  0  0  0  0  0  0  0  0  0  0  0
   21.2253   19.1543   40.1765 C   0  0  0  0  0  0  0  0  0  0  0  0
   21.6459   19.5319   38.9181 C   0  0  0  0  0  0  0  0  0  0  0  0
   22.7415   20.3526   38.7641 C   0  0  0  0  0  0  0  0  0  0  0  0
   25.9419   19.8165   40.5131 N   0  0  0  0  0  0  0  0  0  0  0  0
   28.0259   23.9904   39.3621 N   0  0  0  0  0  0  0  0  0  0  0  0
   23.1989   23.5690   38.9186 C   0  0  0  0  0  0  0  0  0  0  0  0
   23.2891   24.8896   38.2116 C   0  0  0  0  0  0  0  0  0  0  0  0
   19.8269   18.1079   40.3450 Cl  0  0  0  0  0  0  0  0  0  0  0  0
  1  2  2  0
  1  3  1  0
  3  4  2  0
  4  5  1  0
  2  6  1  0
  5  6  2  0
  4  7  1  0
  7  8  2  0
  8  9  1  0
  9 10  2  0
 10 11  1  0
  7 12  1  0
 11 12  2  0
  3 13  1  0
  2 14  1  0
  5 15  1  0
 15 16  1  0
 10 17  1  0
M  END
$$$$
