1J3J_CP6_A_609
     RDKit          3D

 17 18  0  0  0  0  0  0  0  0999 V2000
   35.8995   -1.4674   33.8861 N   0  0  0  0  0  0  0  0  0  0  0  0
   37.0370   -2.1065   33.5040 C   0  0  0  0  0  0  0  0  0  0  0  0
   35.4132   -0.4846   33.0874 C   0  0  0  0  0  0  0  0  0  0  0  0
   36.0438   -0.1258   31.9078 C   0  0  0  0  0  0  0  0  0  0  0  0
   37.1942   -0.7856   31.5398 C   0  0  0  0  0  0  0  0  0  0  0  0
   37.6449   -1.7435   32.3445 N   0  0  0  0  0  0  0  0  0  0  0  0
   35.4638    0.9329   31.1088 C   0  0  0  0  0  0  0  0  0  0  0  0
   34.7739    0.6214   29.9464 C   0  0  0  0  0  0  0  0  0  0  0  0
   34.2131    1.6394   29.1656 C   0  0  0  0  0  0  0  0  0  0  0  0
   34.3450    2.9518   29.5504 C   0  0  0  0  0  0  0  0  0  0  0  0
   35.0315    3.2604   30.7065 C   0  0  0  0  0  0  0  0  0  0  0  0
   35.5853    2.2628   31.4783 C   0  0  0  0  0  0  0  0  0  0  0  0
   34.2187    0.2035   33.4717 N   0  0  0  0  0  0  0  0  0  0  0  0
   37.5591   -3.1424   34.3298 N   0  0  0  0  0  0  0  0  0  0  0  0
   37.9129   -0.4439   30.2965 C   0  0  0  0  0  0  0  0  0  0  0  0
   39.1193   -1.2918   30.0182 C   0  0  0  0  0  0  0  0  0  0  0  0
   33.6495    4.2415   28.5852 Cl  0  0  0  0  0  0  0  0  0  0  0  0
  1  2  2  0
  1  3  1  0
  3  4  2  0
  4  5  1  0
  2  6  1  0
  5  6  2  0
  4  7  1  0
  7  8  2  0
  8  9  1  0
  9 10  2  0
 10 11  1  0
  7 12  1  0
 11 12  2  0
  3 13  1  0
  2 14  1  0
  5 15  1  0
 15 16  1  0
 10 17  1  0
M  END
$$$$
