1J3J_CP6_A_609
     RDKit          3D

 17 18  0  0  0  0  0  0  0  0999 V2000
   41.3941   21.8371   46.8642 N   0  0  0  0  0  0  0  0  0  0  0  0
   40.8019   23.0607   46.8829 C   0  0  0  0  0  0  0  0  0  0  0  0
   41.7391   21.2700   48.0472 C   0  0  0  0  0  0  0  0  0  0  0  0
   41.5026   21.9041   49.2554 C   0  0  0  0  0  0  0  0  0  0  0  0
   40.9021   23.1425   49.2517 C   0  0  0  0  0  0  0  0  0  0  0  0
   40.5765   23.6709   48.0757 N   0  0  0  0  0  0  0  0  0  0  0  0
   41.8992   21.2347   50.4761 C   0  0  0  0  0  0  0  0  0  0  0  0
   43.2352   20.9319   50.6944 C   0  0  0  0  0  0  0  0  0  0  0  0
   43.6271   20.2812   51.8706 C   0  0  0  0  0  0  0  0  0  0  0  0
   42.6871   19.9409   52.8132 C   0  0  0  0  0  0  0  0  0  0  0  0
   41.3587   20.2425   52.5950 C   0  0  0  0  0  0  0  0  0  0  0  0
   40.9677   20.8825   51.4395 C   0  0  0  0  0  0  0  0  0  0  0  0
   42.3663   19.9837   48.0508 N   0  0  0  0  0  0  0  0  0  0  0  0
   40.4311   23.6687   45.6499 N   0  0  0  0  0  0  0  0  0  0  0  0
   40.6290   23.8689   50.5074 C   0  0  0  0  0  0  0  0  0  0  0  0
   39.8603   25.1462   50.3366 C   0  0  0  0  0  0  0  0  0  0  0  0
   43.1585   19.1251   54.2933 Cl  0  0  0  0  0  0  0  0  0  0  0  0
  1  2  2  0
  1  3  1  0
  3  4  2  0
  4  5  1  0
  2  6  1  0
  5  6  2  0
  4  7  1  0
  7  8  2  0
  8  9  1  0
  9 10  2  0
 10 11  1  0
  7 12  1  0
 11 12  2  0
  3 13  1  0
  2 14  1  0
  5 15  1  0
 15 16  1  0
 10 17  1  0
M  END
$$$$
