1J3J_CP6_A_609
     RDKit          3D

 17 18  0  0  0  0  0  0  0  0999 V2000
   12.3890  -13.4447   29.9960 N   0  0  0  0  0  0  0  0  0  0  0  0
   11.2032  -13.5928   30.6443 C   0  0  0  0  0  0  0  0  0  0  0  0
   12.6366  -12.2691   29.3660 C   0  0  0  0  0  0  0  0  0  0  0  0
   11.7183  -11.2325   29.3711 C   0  0  0  0  0  0  0  0  0  0  0  0
   10.5239  -11.4035   30.0332 C   0  0  0  0  0  0  0  0  0  0  0  0
   10.3119  -12.5674   30.6403 N   0  0  0  0  0  0  0  0  0  0  0  0
   12.0550  -10.0080   28.6762 C   0  0  0  0  0  0  0  0  0  0  0  0
   11.5234   -9.7591   27.4193 C   0  0  0  0  0  0  0  0  0  0  0  0
   11.8468   -8.5791   26.7385 C   0  0  0  0  0  0  0  0  0  0  0  0
   12.6929   -7.6631   27.3156 C   0  0  0  0  0  0  0  0  0  0  0  0
   13.2210   -7.9117   28.5656 C   0  0  0  0  0  0  0  0  0  0  0  0
   12.9062   -9.0711   29.2397 C   0  0  0  0  0  0  0  0  0  0  0  0
   13.8772  -12.0924   28.6749 N   0  0  0  0  0  0  0  0  0  0  0  0
   10.9289  -14.8197   31.3128 N   0  0  0  0  0  0  0  0  0  0  0  0
    9.5045  -10.3365   30.0692 C   0  0  0  0  0  0  0  0  0  0  0  0
    8.2408  -10.7028   30.7907 C   0  0  0  0  0  0  0  0  0  0  0  0
   13.1102   -6.1787   26.4783 Cl  0  0  0  0  0  0  0  0  0  0  0  0
  1  2  2  0
  1  3  1  0
  3  4  2  0
  4  5  1  0
  2  6  1  0
  5  6  2  0
  4  7  1  0
  7  8  2  0
  8  9  1  0
  9 10  2  0
 10 11  1  0
  7 12  1  0
 11 12  2  0
  3 13  1  0
  2 14  1  0
  5 15  1  0
 15 16  1  0
 10 17  1  0
M  END
$$$$
