7T1D_E7K_B_1010
     RDKit          3D

 34 39  0  0  0  0  0  0  0  0999 V2000
   20.5785  -16.6646   58.9235 N   0  0  0  0  0  0  0  0  0  0  0  0
   20.4739  -20.5329   50.4915 N   0  0  0  0  0  0  0  0  0  0  0  0
   22.4528  -17.4685   57.3902 C   0  0  0  0  0  0  0  0  0  0  0  0
   20.6304  -15.9563   55.4368 C   0  0  0  0  0  0  0  0  0  0  0  0
   20.8567  -14.7720   54.7828 C   0  0  0  0  0  0  0  0  0  0  0  0
   21.0849  -14.7272   53.4012 C   0  0  0  0  0  0  0  0  0  0  0  0
   21.0895  -15.8931   52.6355 C   0  0  0  0  0  0  0  0  0  0  0  0
   20.4862  -16.9065   50.5023 C   0  0  0  0  0  0  0  0  0  0  0  0
   20.6354  -17.1047   54.6750 C   0  0  0  0  0  0  0  0  0  0  0  0
   20.0548  -21.5082   49.6967 C   0  0  0  0  0  0  0  0  0  0  0  0
   18.5073  -21.8206   47.6169 C   0  0  0  0  0  0  0  0  0  0  0  0
   17.9242  -19.5654   44.6102 C   0  0  0  0  0  0  0  0  0  0  0  0
   16.5990  -19.2303   44.7946 C   0  0  0  0  0  0  0  0  0  0  0  0
   15.9165  -19.7559   45.8982 C   0  0  0  0  0  0  0  0  0  0  0  0
   14.5343  -18.0553   44.0850 C   0  0  0  0  0  0  0  0  0  0  0  0
   15.3460  -17.0306   42.2903 C   0  0  0  0  0  0  0  0  0  0  0  0
   21.1799  -16.7627   57.7096 C   0  0  0  0  0  0  0  0  0  0  0  0
   19.4323  -15.9391   58.8052 C   0  0  0  0  0  0  0  0  0  0  0  0
   18.5322  -15.6575   59.9392 C   0  0  0  0  0  0  0  0  0  0  0  0
   20.4103  -16.0995   56.8283 N   0  0  0  0  0  0  0  0  0  0  0  0
   19.3517  -15.6000   57.4946 C   0  0  0  0  0  0  0  0  0  0  0  0
   20.8582  -17.0654   53.3167 C   0  0  0  0  0  0  0  0  0  0  0  0
   20.8357  -18.3487   52.5877 C   0  0  0  0  0  0  0  0  0  0  0  0
   20.5424  -18.1642   51.1851 N   0  0  0  0  0  0  0  0  0  0  0  0
   21.3443  -15.8784   51.1757 C   0  0  0  0  0  0  0  0  0  0  0  0
   20.2799  -19.4292   50.4807 C   0  0  0  0  0  0  0  0  0  0  0  0
   19.1298  -19.2753   48.9404 S   0  0  0  0  0  0  0  0  0  0  0  0
   19.2452  -21.0713   48.6915 C   0  0  0  0  0  0  0  0  0  0  0  0
   17.9305  -20.9453   46.5996 C   0  0  0  0  0  0  0  0  0  0  0  0
   16.6012  -20.5860   46.7512 C   0  0  0  0  0  0  0  0  0  0  0  0
   18.5879  -20.4197   45.5105 C   0  0  0  0  0  0  0  0  0  0  0  0
   15.8508  -18.3789   43.9530 N   0  0  0  0  0  0  0  0  0  0  0  0
   16.3258  -17.7682   42.8878 N   0  0  0  0  0  0  0  0  0  0  0  0
   14.1862  -17.2029   43.0464 C   0  0  0  0  0  0  0  0  0  0  0  0
  4  5  2  0
  5  6  1  0
  6  7  2  0
  4  9  1  0
  2 10  1  0
 12 13  2  0
 13 14  1  0
  1 17  2  0
  3 17  1  1
  1 18  1  0
 19 18  1  6
 17 20  1  0
  4 20  1  0
 18 21  2  0
 20 21  1  0
  9 22  2  0
  7 22  1  0
 22 23  1  0
 23 24  1  1
  8 24  1  6
 25  7  1  6
  8 25  1  0
 24 26  1  0
  2 26  2  0
 26 27  1  0
 10 28  2  0
 27 28  1  0
 11 28  1  6
 11 29  1  0
 29 30  1  0
 14 30  2  0
 29 31  2  0
 12 31  1  0
 13 32  1  0
 15 32  1  0
 32 33  1  0
 16 33  2  0
 15 34  2  0
 16 34  1  0
M  END
$$$$
