7ZL5_IWE_AAA_303
     RDKit          3D

 23 25  0  0  0  0  0  0  0  0999 V2000
  -16.4689   36.2098   46.5449 N   0  0  0  0  0  0  0  0  0  0  0  0
  -18.0077   36.3932   41.6283 C   0  0  0  0  0  0  0  0  0  0  0  0
  -18.4147   37.0325   42.7720 C   0  0  0  0  0  0  0  0  0  0  0  0
  -17.7806   36.8832   44.0002 C   0  0  0  0  0  0  0  0  0  0  0  0
  -16.6833   36.0546   44.0988 C   0  0  0  0  0  0  0  0  0  0  0  0
  -15.9640   35.8434   45.3439 C   0  0  0  0  0  0  0  0  0  0  0  0
  -16.2850   35.4169   42.9371 C   0  0  0  0  0  0  0  0  0  0  0  0
  -18.7822   38.9614   44.8947 C   0  0  0  0  0  0  0  0  0  0  0  0
  -16.2041   35.6858   39.1227 O   0  0  0  0  0  0  0  0  0  0  0  0
  -19.2053   39.6137   46.1192 C   0  0  0  0  0  0  0  0  0  0  0  0
  -19.5821   41.1775   48.2975 C   0  0  0  0  0  0  0  0  0  0  0  0
  -20.4007   40.0924   48.0813 C   0  0  0  0  0  0  0  0  0  0  0  0
  -14.5777   35.3504   46.9231 N   0  0  0  0  0  0  0  0  0  0  0  0
  -20.2255   39.3240   47.0229 C   0  0  0  0  0  0  0  0  0  0  0  0
  -15.6172   35.9071   47.5173 N   0  0  0  0  0  0  0  0  0  0  0  0
  -18.8491   36.6220   40.1077 Cl  0  0  0  0  0  0  0  0  0  0  0  0
  -14.7785   35.3084   45.6162 N   0  0  0  0  0  0  0  0  0  0  0  0
  -16.9117   35.5653   41.7262 C   0  0  0  0  0  0  0  0  0  0  0  0
  -16.3581   34.7300   40.2923 S   0  0  2  0  0  6  0  0  0  0  0  0
  -14.8183   33.9894   40.5175 N   0  0  0  0  0  0  0  0  0  0  0  0
  -17.3459   33.6909   39.8496 O   0  0  0  0  0  0  0  0  0  0  0  0
  -18.2908   37.5904   45.0983 N   0  0  0  0  0  0  0  0  0  0  0  0
  -18.4085   41.1223   46.8289 S   0  0  0  0  0  0  0  0  0  0  0  0
  2  3  2  0
  3  4  1  0
  4  5  2  0
  5  6  1  0
  1  6  1  0
  5  7  1  0
  8 10  1  0
 11 12  2  0
 12 14  1  0
 10 14  2  0
  1 15  1  0
 13 15  2  0
  2 16  1  0
  6 17  2  0
 13 17  1  0
  2 18  1  0
  7 18  2  0
  9 19  2  0
 18 19  1  0
 19 20  1  1
 19 21  2  0
  4 22  1  0
  8 22  1  6
 10 23  1  0
 11 23  1  0
M  END
$$$$
