
     RDKit          3D

 30 32  0  0  0  0  0  0  0  0999 V2000
   16.4402   18.1833   32.9275 O   0  0  0  0  0  0  0  0  0  0  0  0
    3.6661   25.5812   34.2566 O   0  0  0  0  0  0  0  0  0  0  0  0
   14.9370   17.4196   35.4123 C   0  0  1  0  0  0  0  0  0  0  0  0
   15.0506   16.6213   34.1112 C   0  0  0  0  0  0  0  0  0  0  0  0
   15.1623   17.5437   32.9007 C   0  0  1  0  0  0  0  0  0  0  0  0
   14.0268   18.5802   32.8652 C   0  0  0  0  0  0  0  0  0  0  0  0
   13.8662   19.3211   34.1789 C   0  0  0  0  0  0  0  0  0  0  0  0
   13.7895   20.6582   34.3344 C   0  0  0  0  0  0  0  0  0  0  0  0
   13.8943   21.6580   33.2973 C   0  0  0  0  0  0  0  0  0  0  0  0
   13.4278   22.9229   33.3164 C   0  0  0  0  0  0  0  0  0  0  0  0
   13.7957   23.8309   32.1448 C   0  0  0  0  0  0  0  0  0  0  0  0
   13.7993   18.4251   35.3399 C   0  0  0  0  0  0  0  0  0  0  0  0
   13.5871   25.3179   32.4460 C   0  0  0  0  0  0  0  0  0  0  0  0
   12.1617   25.6596   32.9042 C   0  0  0  0  0  0  0  0  0  0  0  0
   11.4818   24.5209   33.7025 C   0  0  1  0  0  0  0  0  0  0  0  0
   12.5608   23.6073   34.3591 C   0  0  1  0  0  0  0  0  0  0  0  0
   11.7569   22.8284   35.4102 C   0  0  0  0  0  0  0  0  0  0  0  0
   10.6296   23.7735   35.8621 C   0  0  0  0  0  0  0  0  0  0  0  0
   10.7480   25.0297   34.9785 C   0  0  2  0  0  0  0  0  0  0  0  0
   10.5384   23.7394   32.7569 C   0  0  0  0  0  0  0  0  0  0  0  0
   12.7894   18.4931   36.2244 C   0  0  0  0  0  0  0  0  0  0  0  0
    9.4579   25.8747   34.7815 C   0  0  2  0  0  0  0  0  0  0  0  0
    9.6649   27.2562   35.4299 C   0  0  0  0  0  0  0  0  0  0  0  0
    8.1612   25.2361   35.3336 C   0  0  0  0  0  0  0  0  0  0  0  0
    6.8988   25.7088   34.5956 C   0  0  0  0  0  0  0  0  0  0  0  0
    5.8742   24.5828   34.3755 C   0  0  0  0  0  0  0  0  0  0  0  0
    4.6612   24.9116   33.4763 C   0  0  2  0  0  0  0  0  0  0  0  0
    5.0038   25.7854   32.2706 C   0  0  0  0  0  0  0  0  0  0  0  0
    4.0241   23.6034   32.9930 C   0  0  0  0  0  0  0  0  0  0  0  0
   14.7430   16.5022   36.4899 O   0  0  0  0  0  0  0  0  0  0  0  0
  3  4  1  0
  5  1  1  1
  4  5  1  0
  5  6  1  0
  6  7  1  0
  7  8  2  0
  8  9  1  0
  9 10  2  0
 10 11  1  0
  3 12  1  0
  7 12  1  0
 11 13  1  0
 13 14  1  0
 14 15  1  0
 10 16  1  0
 15 16  1  0
 16 17  1  6
 17 18  1  0
 15 19  1  0
 19 18  1  1
 15 20  1  6
 12 21  2  0
 19 22  1  0
 22 23  1  1
 22 24  1  0
 24 25  1  0
 25 26  1  0
  2 27  1  0
 26 27  1  0
 27 28  1  6
 27 29  1  0
  3 30  1  1
M  END
