8HO0_3ZI_A_402
     RDKit          3D

 38 41  0  0  0  0  0  0  0  0999 V2000
   -2.9391   -0.5427    0.7042 C   0  0  1  0  0  0  0  0  0  0  0  0
    0.8390    0.6352   -0.9803 C   0  0  0  0  0  0  0  0  0  0  0  0
   -1.1604    1.8005   -0.2794 C   0  0  0  0  0  0  0  0  0  0  0  0
   -0.3262    0.6816   -0.2579 C   0  0  0  0  0  0  0  0  0  0  0  0
   -3.2569    1.5096    1.8994 O   0  0  0  0  0  0  0  0  0  0  0  0
   -1.8573    2.9392   -0.2702 C   0  0  0  0  0  0  0  0  0  0  0  0
   -2.8405   -0.1916   -1.8205 C   0  0  0  0  0  0  0  0  0  0  0  0
   -1.5785   -1.0103    1.2484 C   0  0  0  0  0  0  0  0  0  0  0  0
   -0.4428   -0.5332    0.3900 C   0  0  0  0  0  0  0  0  0  0  0  0
    1.2528    1.7087   -1.7689 C   0  0  0  0  0  0  0  0  0  0  0  0
    0.4357    2.8536   -1.8064 C   0  0  0  0  0  0  0  0  0  0  0  0
   -0.7661    2.8982   -1.0658 C   0  0  0  0  0  0  0  0  0  0  0  0
   -3.0167    0.9573    0.7921 C   0  0  0  0  0  0  0  0  0  0  0  0
   -2.8983    1.3064   -1.7145 C   0  0  2  0  0  0  0  0  0  0  0  0
   -1.8186    2.0220   -2.5222 C   0  0  0  0  0  0  0  0  0  0  0  0
   -1.4972    3.2784   -1.7139 C   0  0  0  0  0  0  0  0  0  0  0  0
    0.6725   -1.2726    0.0086 C   0  0  0  0  0  0  0  0  0  0  0  0
    2.4041    1.6522   -2.4829 F   0  0  0  0  0  0  0  0  0  0  0  0
   -2.6958    1.7565   -0.3500 N   0  0  0  0  0  0  0  0  0  0  0  0
   -3.1184   -1.0080   -0.6762 N   0  0  0  0  0  0  0  0  0  0  0  0
    1.4559   -0.5495   -0.8239 N   0  0  0  0  0  4  0  0  0  0  0  0
   -2.6669   -0.7351   -2.9443 O   0  0  0  0  0  0  0  0  0  0  0  0
   -3.7512   -0.9724    1.3318 H   0  0  0  0  0  0  0  0  0  0  0  0
   -2.0837    1.8276    0.2843 H   0  0  0  0  0  0  0  0  0  0  0  0
   -2.4100    3.7736    0.2126 H   0  0  0  0  0  0  0  0  0  0  0  0
   -0.9366    2.7075    0.3089 H   0  0  0  0  0  0  0  0  0  0  0  0
   -1.4409   -0.6463    2.2900 H   0  0  0  0  0  0  0  0  0  0  0  0
   -1.5507   -2.1216    1.2786 H   0  0  0  0  0  0  0  0  0  0  0  0
    0.7272    3.7040   -2.4091 H   0  0  0  0  0  0  0  0  0  0  0  0
   -1.3896    3.7819   -1.1052 H   0  0  0  0  0  0  0  0  0  0  0  0
   -3.9028    1.6435   -2.0517 H   0  0  0  0  0  0  0  0  0  0  0  0
   -0.9016    1.3947   -2.5936 H   0  0  0  0  0  0  0  0  0  0  0  0
   -2.1744    2.2755   -3.5445 H   0  0  0  0  0  0  0  0  0  0  0  0
   -2.1316    4.1202   -2.0690 H   0  0  0  0  0  0  0  0  0  0  0  0
   -0.4261    3.5594   -1.8114 H   0  0  0  0  0  0  0  0  0  0  0  0
    0.8908   -2.2876    0.3142 H   0  0  0  0  0  0  0  0  0  0  0  0
   -3.3032   -2.0247   -0.8324 H   0  0  0  0  0  0  0  0  0  0  0  0
    2.3499   -0.8596   -1.2655 H   0  0  0  0  0  0  0  0  0  0  0  0
  2  4  4  0
  3  4  4  0
  1  8  1  0
  4  9  4  0
  8  9  1  0
  2 10  4  0
 10 11  4  0
 11 12  4  0
  3 12  4  0
  1 13  1  0
  5 13  2  0
  7 14  1  0
 14 15  1  0
  6 16  1  0
 15 16  1  0
  9 17  4  0
 10 18  1  0
 13 19  1  0
 14 19  1  0
  6 19  1  0
  1 20  1  0
  7 20  1  0
  2 21  4  0
 17 21  4  0
  7 22  2  0
  1 23  1  1
  3 24  1  0
  6 25  1  0
  6 26  1  0
  8 27  1  0
  8 28  1  0
 11 29  1  0
 12 30  1  0
 14 31  1  6
 15 32  1  0
 15 33  1  0
 16 34  1  0
 16 35  1  0
 17 36  1  0
 20 37  1  0
 21 38  1  0
M  CHG  1  21   1
M  END
