1UOU_CMU_A_1481
     RDKit          3D

 16 17  0  0  0  0  0  0  0  0999 V2000
   -4.9499    4.6505   30.7016 Cl  0  0  0  0  0  0  0  0  0  0  0  0
   -3.7165    3.4468   30.6560 C   0  0  0  0  0  0  0  0  0  0  0  0
   -3.3908    2.8608   29.4492 C   0  0  0  0  0  0  0  0  0  0  0  0
   -4.0146    3.1740   28.1653 C   0  0  0  0  0  0  0  0  0  0  0  0
   -4.5439    2.0433   27.4450 N   0  0  0  0  0  0  0  0  0  0  0  0
   -5.7286    1.2686   27.7491 C   0  0  0  0  0  0  0  0  0  0  0  0
   -5.5238   -0.1192   27.1846 C   0  0  0  0  0  0  0  0  0  0  0  0
   -4.5370    0.0991   26.0813 C   0  0  0  0  0  0  0  0  0  0  0  0
   -3.9655    1.4742   26.2775 C   0  0  0  0  0  0  0  0  0  0  0  0
   -3.0967    1.9606   25.4602 N   0  0  0  0  0  0  0  0  0  0  0  0
   -2.4052    1.9164   29.4870 N   0  0  0  0  0  0  0  0  0  0  0  0
   -1.7995    1.5903   30.6414 C   0  0  0  0  0  0  0  0  0  0  0  0
   -0.8991    0.7025   30.5668 O   0  0  0  0  0  0  0  0  0  0  0  0
   -2.1014    2.1432   31.8046 N   0  0  0  0  0  0  0  0  0  0  0  0
   -3.0677    3.0820   31.8259 C   0  0  0  0  0  0  0  0  0  0  0  0
   -3.3647    3.6160   32.9250 O   0  0  0  0  0  0  0  0  0  0  0  0
  1  2  1  0
  2  3  2  0
  3  4  1  0
  4  5  1  1
  6  5  1  6
  7  6  1  1
  7  8  1  0
  5  9  1  0
  8  9  1  6
  9 10  2  3
  3 11  1  0
 11 12  1  0
 12 13  2  0
 12 14  1  0
  2 15  1  0
 14 15  1  0
 15 16  2  0
M  END
$$$$
