1YQY_915_A_782
     RDKit          3D

 42 43  0  0  0  0  0  0  0  0999 V2000
    0.1887    2.9584    1.2690 C   0  0  0  0  0  0  0  0  0  0  0  0
    0.3099    1.6270    1.6900 C   0  0  0  0  0  0  0  0  0  0  0  0
    0.7876    1.3272    2.9759 C   0  0  0  0  0  0  0  0  0  0  0  0
    1.1345    2.3752    3.8428 C   0  0  0  0  0  0  0  0  0  0  0  0
    1.0092    3.7030    3.4239 C   0  0  0  0  0  0  0  0  0  0  0  0
    0.5379    3.9958    2.1424 C   0  0  0  0  0  0  0  0  0  0  0  0
    1.5947    2.1106    5.0916 F   0  0  0  0  0  0  0  0  0  0  0  0
    0.9210   -0.0984    3.4280 C   0  0  0  0  0  0  0  0  0  0  0  0
   -0.3835    3.3083   -0.3605 S   0  0  2  0  0  6  0  0  0  0  0  0
   -0.6734    1.8328   -1.2403 N   0  0  0  0  0  0  0  0  0  0  0  0
   -0.1122    0.6539   -0.5549 C   0  0  1  0  0  0  0  0  0  0  0  0
    1.1746    0.1950   -1.2089 C   0  0  0  0  0  0  0  0  0  0  0  0
    2.3906    0.9329   -1.0500 N   0  0  0  0  0  0  0  0  0  0  0  0
    3.2893    0.5775   -0.1006 O   0  0  0  0  0  0  0  0  0  0  0  0
    1.1759   -0.8661   -1.8898 O   0  0  0  0  0  0  0  0  0  0  0  0
    0.6186    4.1555   -1.0976 O   0  0  0  0  0  0  0  0  0  0  0  0
   -1.6709    4.0754   -0.2577 O   0  0  0  0  0  0  0  0  0  0  0  0
    0.1085    0.9724    0.9490 C   0  0  2  0  0  0  0  0  0  0  0  0
    1.0919    2.1508    1.1533 C   0  0  0  0  0  0  0  0  0  0  0  0
    1.7056    2.1501    2.5664 C   0  0  0  0  0  0  0  0  0  0  0  0
    0.8686    1.4686    3.4767 O   0  0  0  0  0  0  0  0  0  0  0  0
    0.8880    0.0769    3.2036 C   0  0  0  0  0  0  0  0  0  0  0  0
    0.6244   -0.2604    1.7159 C   0  0  0  0  0  0  0  0  0  0  0  0
    0.0394    0.8271    1.0130 H   0  0  0  0  0  0  0  0  0  0  0  0
    1.2796    4.5083    4.0933 H   0  0  0  0  0  0  0  0  0  0  0  0
    0.4535    5.0293    1.8335 H   0  0  0  0  0  0  0  0  0  0  0  0
    0.2214   -0.2881    4.2698 H   0  0  0  0  0  0  0  0  0  0  0  0
    0.6868   -0.8095    2.6081 H   0  0  0  0  0  0  0  0  0  0  0  0
    1.9623   -0.2900    3.7665 H   0  0  0  0  0  0  0  0  0  0  0  0
   -1.7036    1.7251   -1.3759 H   0  0  0  0  0  0  0  0  0  0  0  0
   -0.8496   -0.1791   -0.6038 H   0  0  0  0  0  0  0  0  0  0  0  0
    2.5847    1.7718   -1.6400 H   0  0  0  0  0  0  0  0  0  0  0  0
    3.9095   -0.0467   -0.5574 H   0  0  0  0  0  0  0  0  0  0  0  0
   -0.8701    1.2569    1.3981 H   0  0  0  0  0  0  0  0  0  0  0  0
    1.9182    2.1019    0.4106 H   0  0  0  0  0  0  0  0  0  0  0  0
    0.5468    3.1062    0.9912 H   0  0  0  0  0  0  0  0  0  0  0  0
    1.8275    3.1983    2.9128 H   0  0  0  0  0  0  0  0  0  0  0  0
    2.7259    1.7003    2.5491 H   0  0  0  0  0  0  0  0  0  0  0  0
    0.0960   -0.3977    3.8199 H   0  0  0  0  0  0  0  0  0  0  0  0
    1.8562   -0.3624    3.5335 H   0  0  0  0  0  0  0  0  0  0  0  0
   -0.1116   -1.0910    1.6528 H   0  0  0  0  0  0  0  0  0  0  0  0
    1.5719   -0.6128    1.2506 H   0  0  0  0  0  0  0  0  0  0  0  0
  1  2  4  0
  2  3  4  0
  3  4  4  0
  4  5  4  0
  1  6  4  0
  5  6  4  0
  4  7  1  0
  3  8  1  0
  1  9  1  0
  9 10  1  6
 11 10  1  0
 11 12  1  0
 12 13  1  0
 13 14  1  0
 12 15  2  0
  9 16  2  0
  9 17  2  0
 11 18  1  0
 18 19  1  0
 19 20  1  0
 20 21  1  0
 21 22  1  0
 18 23  1  0
 22 23  1  0
  2 24  1  0
  5 25  1  0
  6 26  1  0
  8 27  1  0
  8 28  1  0
  8 29  1  0
 10 30  1  0
 11 31  1  1
 13 32  1  0
 14 33  1  0
 18 34  1  1
 19 35  1  0
 19 36  1  0
 20 37  1  0
 20 38  1  0
 22 39  1  0
 22 40  1  0
 23 41  1  0
 23 42  1  0
M  END
