7LJN_GTP_C_501
     RDKit          3D

 32 34  0  0  0  0  0  0  0  0999 V2000
  -10.9243   29.2727  -28.9296 P   0  0  2  0  0  0  0  0  0  0  0  0
  -11.1526   30.6443  -29.5229 O   0  0  0  0  0  0  0  0  0  0  0  0
  -10.2898   29.3418  -27.5663 O   0  0  0  0  0  0  0  0  0  0  0  0
  -10.2062   28.3296  -29.8791 O   0  0  0  0  0  0  0  0  0  0  0  0
  -12.4100   28.6971  -28.6916 O   0  0  0  0  0  0  0  0  0  0  0  0
  -12.9028   27.3772  -27.9030 P   0  0  1  0  0  0  0  0  0  0  0  0
  -13.1512   26.2780  -28.8792 O   0  0  0  0  0  0  0  0  0  0  0  0
  -11.9144   27.0376  -26.8073 O   0  0  0  0  0  0  0  0  0  0  0  0
  -14.3348   27.7647  -27.2719 O   0  0  0  0  0  0  0  0  0  0  0  0
  -14.6380   27.9708  -25.7091 P   0  0  1  0  0  0  0  0  0  0  0  0
  -13.5436   27.3639  -24.8759 O   0  0  0  0  0  0  0  0  0  0  0  0
  -14.8735   29.4317  -25.4317 O   0  0  0  0  0  0  0  0  0  0  0  0
  -16.0291   27.1990  -25.5694 O   0  0  0  0  0  0  0  0  0  0  0  0
  -16.3639   26.0645  -26.3443 C   0  0  0  0  0  0  0  0  0  0  0  0
  -17.7546   26.2749  -26.9488 C   0  0  1  0  0  0  0  0  0  0  0  0
  -18.2135   25.0846  -27.5631 O   0  0  0  0  0  0  0  0  0  0  0  0
  -18.7690   26.6389  -25.8961 C   0  0  1  0  0  0  0  0  0  0  0  0
  -18.7546   28.0267  -25.6439 O   0  0  0  0  0  0  0  0  0  0  0  0
  -20.0473   26.1384  -26.5329 C   0  0  1  0  0  0  0  0  0  0  0  0
  -20.5178   27.0682  -27.4879 O   0  0  0  0  0  0  0  0  0  0  0  0
  -19.5860   24.9103  -27.3010 C   0  0  2  0  0  0  0  0  0  0  0  0
  -19.7637   23.7035  -26.4953 N   0  0  0  0  0  0  0  0  0  0  0  0
  -18.9715   23.2363  -25.4859 C   0  0  0  0  0  0  0  0  0  0  0  0
  -19.4999   22.0783  -25.0361 N   0  0  0  0  0  0  0  0  0  0  0  0
  -20.6065   21.7939  -25.7584 C   0  0  0  0  0  0  0  0  0  0  0  0
  -21.5193   20.7398  -25.7421 C   0  0  0  0  0  0  0  0  0  0  0  0
  -21.4236   19.7993  -24.9407 O   0  0  0  0  0  0  0  0  0  0  0  0
  -22.5467   20.7472  -26.6503 N   0  0  0  0  0  0  0  0  0  0  0  0
  -22.6915   21.7772  -27.5542 C   0  0  0  0  0  0  0  0  0  0  0  0
  -23.7079   21.7692  -28.4089 N   0  0  0  0  0  0  0  0  0  0  0  0
  -21.8072   22.8219  -27.5684 N   0  0  0  0  0  0  0  0  0  0  0  0
  -20.7708   22.8069  -26.6879 C   0  0  0  0  0  0  0  0  0  0  0  0
  1  2  2  0
  1  3  1  1
  1  4  1  0
  1  5  1  0
  5  6  1  0
  6  7  2  0
  6  8  1  1
  6  9  1  0
  9 10  1  0
 10 11  2  0
 10 12  1  6
 10 13  1  0
 13 14  1  0
 15 14  1  1
 15 16  1  0
 15 17  1  0
 17 18  1  6
 17 19  1  0
 19 20  1  6
 16 21  1  0
 19 21  1  0
 21 22  1  1
 22 23  1  0
 23 24  2  0
 24 25  1  0
 25 26  1  0
 26 27  2  0
 26 28  1  0
 28 29  1  0
 29 30  1  0
 29 31  2  0
 22 32  1  0
 25 32  2  0
 31 32  1  0
M  END
