
     RDKit          3D

 24 26  0  0  0  0  0  0  0  0999 V2000
   11.2109   -2.9216    1.9215 O   0  0  0  0  0  0  0  0  0  0  0  0
   12.3396   -3.1727    2.2766 C   0  0  0  0  0  0  0  0  0  0  0  0
   12.8709   -4.3121    2.8224 N   0  0  0  0  0  0  0  0  0  0  0  0
   12.0620   -5.1003    3.7627 C   0  0  1  0  0  0  0  0  0  0  0  0
   11.5745   -6.4246    3.1843 C   0  0  0  0  0  0  0  0  0  0  0  0
   11.0684   -7.3332    3.8263 O   0  0  0  0  0  0  0  0  0  0  0  0
   11.7753   -6.5737    1.8604 O   0  0  0  0  0  0  0  0  0  0  0  0
   12.8988   -5.2536    5.0506 C   0  0  2  0  0  0  0  0  0  0  0  0
   13.8646   -6.4489    5.0223 C   0  0  0  0  0  0  0  0  0  0  0  0
   12.0398   -5.3142    6.3134 C   0  0  0  0  0  0  0  0  0  0  0  0
   13.9024   -3.7549    5.0100 S   0  0  1  0  0  4  0  0  0  0  0  0
   14.1148   -3.6273    3.2603 C   0  0  2  0  0  0  0  0  0  0  0  0
   13.6758   -2.4067    2.4322 C   0  0  2  0  0  0  0  0  0  0  0  0
   13.6424   -1.1271    3.1812 N   0  0  0  0  0  0  0  0  0  0  0  0
   14.6151   -0.1734    2.9867 C   0  0  0  0  0  0  0  0  0  0  0  0
   15.3648   -0.1832    2.0105 O   0  0  0  0  0  0  0  0  0  0  0  0
   14.7558    0.8459    4.1016 C   0  0  0  0  0  0  0  0  0  0  0  0
   16.1773    1.2524    4.4077 C   0  0  0  0  0  0  0  0  0  0  0  0
   16.9728    0.4713    5.2593 C   0  0  0  0  0  0  0  0  0  0  0  0
   18.2935    0.8371    5.5210 C   0  0  0  0  0  0  0  0  0  0  0  0
   18.8335    1.9813    4.9334 C   0  0  0  0  0  0  0  0  0  0  0  0
   18.0529    2.7627    4.0851 C   0  0  0  0  0  0  0  0  0  0  0  0
   16.7323    2.3991    3.8199 C   0  0  0  0  0  0  0  0  0  0  0  0
   12.8062   -2.6006    5.3475 O   0  0  0  0  0  0  0  0  0  0  0  0
  1  2  2  0
  2  3  1  0
  3  4  1  0
  4  5  1  6
  5  6  2  0
  5  7  1  0
  4  8  1  0
  8  9  1  6
  8 10  1  0
  8 11  1  0
 12  3  1  6
 11 12  1  0
  2 13  1  0
 12 13  1  0
 13 14  1  1
 14 15  1  0
 15 16  2  0
 15 17  1  0
 17 18  1  0
 18 19  4  0
 19 20  4  0
 20 21  4  0
 21 22  4  0
 18 23  4  0
 22 23  4  0
 11 24  1  6
M  END
