@<TRIPOS>MOLECULE
1GPK_HUP_A_1540
 36 38 0 0 0
SMALL
GASTEIGER

@<TRIPOS>ATOM
      1 C          -0.6829    1.6907    3.1130 C.ar    1  UNL1        0.2489
      2 O          -0.9048    2.1122    4.2795 O.2     1  UNL1       -0.2679
      3 N          -0.4503    0.3680    2.8996 N.ar    1  UNL1       -0.3259
      4 C          -0.6830    2.5810    2.0428 C.ar    1  UNL1        0.0031
      5 C          -0.4296    2.1104    0.7571 C.ar    1  UNL1       -0.0497
      6 C          -0.1500    0.7480    0.5315 C.ar    1  UNL1       -0.0038
      7 C          -0.2119   -0.1329    1.6520 C.ar    1  UNL1        0.0252
      8 C           0.0443   -1.6228    1.5122 C.3     1  UNL1       -0.0020
      9 C          -0.0864   -2.1179    0.0657 C.3     1  UNL1        0.0058
     10 C          -1.5448   -2.1333   -0.3453 C.2     1  UNL1       -0.0774
     11 C           2.6433   -2.7761   -1.0124 C.3     1  UNL1       -0.0465
     12 C           1.9716   -1.4496   -1.2221 C.2     1  UNL1       -0.0852
     13 C           0.7119   -1.1706   -0.7988 C.2     1  UNL1       -0.0422
     14 C           0.0654    0.2100   -0.8972 C.3     1  UNL1        0.0694
     15 N           0.8980    1.1374   -1.6875 N.3     1  UNL1       -0.3174
     16 C          -1.3124    0.0284   -1.5881 C.3     1  UNL1       -0.0057
     17 C          -2.1275   -1.1220   -1.0243 C.2     1  UNL1       -0.0736
     18 C          -3.5959   -1.2003   -1.3379 C.3     1  UNL1       -0.0437
     19 H          -0.4614   -0.2817    3.7191 H       1  UNL1        0.1686
     20 H          -0.8865    3.6329    2.2031 H       1  UNL1        0.0672
     21 H          -0.4717    2.8214   -0.0540 H       1  UNL1        0.0623
     22 H           1.0743   -1.8318    1.8743 H       1  UNL1        0.0336
     23 H          -0.6565   -2.1887    2.1648 H       1  UNL1        0.0336
     24 H           0.2826   -3.1625    0.0036 H       1  UNL1        0.0392
     25 H          -2.1581   -2.9565    0.0126 H       1  UNL1        0.0578
     26 H           2.7199   -3.0002    0.0723 H       1  UNL1        0.0272
     27 H           3.6686   -2.7472   -1.4372 H       1  UNL1        0.0272
     28 H           2.0735   -3.5779   -1.5273 H       1  UNL1        0.0272
     29 H           2.5627   -0.6976   -1.7317 H       1  UNL1        0.0570
     30 H           0.3712    2.0178   -1.8818 H       1  UNL1        0.1193
     31 H           1.0599    0.7281   -2.6371 H       1  UNL1        0.1193
     32 H          -1.1606   -0.1723   -2.6711 H       1  UNL1        0.0334
     33 H          -1.8972    0.9710   -1.5078 H       1  UNL1        0.0334
     34 H          -3.8136   -2.1326   -1.9009 H       1  UNL1        0.0274
     35 H          -4.1806   -1.1979   -0.3938 H       1  UNL1        0.0274
     36 H          -3.9184   -0.3352   -1.9550 H       1  UNL1        0.0274
@<TRIPOS>BOND
     1     1     2    2
     2     1     3   ar
     3     1     4   ar
     4     4     5   ar
     5     5     6   ar
     6     3     7   ar
     7     6     7   ar
     8     7     8    1
     9     9     8    1
    10     9    10    1
    11    11    12    1
    12     9    13    1
    13    12    13    2
    14     6    14    1
    15    13    14    1
    16    14    15    1
    17    14    16    1
    18    10    17    2
    19    16    17    1
    20    17    18    1
    21     3    19    1
    22     4    20    1
    23     5    21    1
    24     8    22    1
    25     8    23    1
    26     9    24    1
    27    10    25    1
    28    11    26    1
    29    11    27    1
    30    11    28    1
    31    12    29    1
    32    15    30    1
    33    15    31    1
    34    16    32    1
    35    16    33    1
    36    18    34    1
    37    18    35    1
    38    18    36    1
