1GPK_HUP_A_1540
     RDKit          3D

 36 38  0  0  0  0  0  0  0  0999 V2000
    4.8107   69.2279   60.2241 C   0  0  0  0  0  0  0  0  0  0  0  0
    5.3718   69.8329   59.2714 O   0  0  0  0  0  0  0  0  0  0  0  0
    5.5343   68.9212   61.3791 N   0  0  0  0  0  4  0  0  0  0  0  0
    3.4168   68.8062   60.2155 C   0  0  0  0  0  0  0  0  0  0  0  0
    2.8741   68.1519   61.3025 C   0  0  0  0  0  0  0  0  0  0  0  0
    3.6395   67.8434   62.4972 C   0  0  0  0  0  0  0  0  0  0  0  0
    5.0121   68.2493   62.5048 C   0  0  0  0  0  0  0  0  0  0  0  0
    5.9603   68.0159   63.6579 C   0  0  0  0  0  0  0  0  0  0  0  0
    5.3038   67.2048   64.8611 C   0  0  2  0  0  0  0  0  0  0  0  0
    5.4193   65.6786   64.6656 C   0  0  0  0  0  0  0  0  0  0  0  0
    3.8763   68.6681   67.2883 C   0  0  0  0  0  0  0  0  0  0  0  0
    3.2294   68.1676   66.0323 C   0  0  0  0  0  0  0  0  0  0  0  0
    3.8070   67.5662   65.0005 C   0  0  0  0  0  0  0  0  0  0  0  0
    3.0152   67.0973   63.7566 C   0  0  1  0  0  0  0  0  0  0  0  0
    1.5694   67.4365   63.8750 N   0  0  0  0  0  0  0  0  0  0  0  0
    3.1400   65.5540   63.5939 C   0  0  0  0  0  0  0  0  0  0  0  0
    4.4341   64.9334   64.0895 C   0  0  0  0  0  0  0  0  0  0  0  0
    4.5213   63.4345   63.8963 C   0  0  0  0  0  0  0  0  0  0  0  0
    6.4797   69.1944   61.4101 H   0  0  0  0  0  0  0  0  0  0  0  0
    2.8294   68.9984   59.3889 H   0  0  0  0  0  0  0  0  0  0  0  0
    1.8821   67.8699   61.2647 H   0  0  0  0  0  0  0  0  0  0  0  0
    6.8036   67.4650   63.2975 H   0  0  0  0  0  0  0  0  0  0  0  0
    6.2381   68.9766   64.0385 H   0  0  0  0  0  0  0  0  0  0  0  0
    5.8405   67.4794   65.7451 H   0  0  0  0  0  0  0  0  0  0  0  0
    6.2777   65.2026   64.9842 H   0  0  0  0  0  0  0  0  0  0  0  0
    3.1333   69.1043   67.9227 H   0  0  0  0  0  0  0  0  0  0  0  0
    4.3455   67.8523   67.7973 H   0  0  0  0  0  0  0  0  0  0  0  0
    4.6119   69.4050   67.0415 H   0  0  0  0  0  0  0  0  0  0  0  0
    2.2096   68.3080   65.9614 H   0  0  0  0  0  0  0  0  0  0  0  0
    1.4647   68.4453   63.9827 H   0  0  0  0  0  0  0  0  0  0  0  0
    1.0786   67.1314   63.0344 H   0  0  0  0  0  0  0  0  0  0  0  0
    2.3334   65.1020   64.1323 H   0  0  0  0  0  0  0  0  0  0  0  0
    3.1193   65.3731   62.5395 H   0  0  0  0  0  0  0  0  0  0  0  0
    5.4592   63.0808   64.2703 H   0  0  0  0  0  0  0  0  0  0  0  0
    3.7233   62.9593   64.4276 H   0  0  0  0  0  0  0  0  0  0  0  0
    4.4430   63.2041   62.8543 H   0  0  0  0  0  0  0  0  0  0  0  0
  1  2  2  0
  1  3  4  0
  1  4  4  0
  4  5  4  0
  5  6  4  0
  3  7  4  0
  6  7  4  0
  7  8  1  0
  9  8  1  0
  9 10  1  0
 11 12  1  0
  9 13  1  0
 12 13  2  3
  6 14  1  0
 13 14  1  0
 14 15  1  6
 14 16  1  0
 10 17  2  0
 16 17  1  0
 17 18  1  0
  3 19  1  0
  4 20  1  0
  5 21  1  0
  8 22  1  0
  8 23  1  0
  9 24  1  6
 10 25  1  0
 11 26  1  0
 11 27  1  0
 11 28  1  0
 12 29  1  0
 15 30  1  0
 15 31  1  0
 16 32  1  0
 16 33  1  0
 18 34  1  0
 18 35  1  0
 18 36  1  0
M  CHG  1   3   1
M  END
