
     RDKit          3D

 35 38  0  0  0  0  0  0  0  0999 V2000
   14.6709  135.4840   -4.8607 C   0  0  1  0  0  0  0  0  0  0  0  0
   14.5996  134.1234   -4.1333 C   0  0  0  0  0  0  0  0  0  0  0  0
   16.1568  135.9158   -5.1438 C   0  0  0  0  0  0  0  0  0  0  0  0
   13.8658  135.6106   -6.1936 C   0  0  0  0  0  0  0  0  0  0  0  0
   14.1132  136.5644   -3.8488 C   0  0  0  0  0  0  0  0  0  0  0  0
   15.7177  133.6389   -3.4263 C   0  0  0  0  0  0  0  0  0  0  0  0
   13.4333  133.3382   -4.1155 C   0  0  0  0  0  0  0  0  0  0  0  0
   16.9015  135.2479   -6.1069 N   0  0  0  0  0  0  0  0  0  0  0  0
   16.6748  136.8321   -4.4932 O   0  0  0  0  0  0  0  0  0  0  0  0
   14.0313  134.5398   -7.2805 C   0  0  0  0  0  0  0  0  0  0  0  0
   14.5069  136.4323   -2.3791 C   0  0  0  0  0  0  0  0  0  0  0  0
   15.6835  132.3959   -2.7861 C   0  0  0  0  0  0  0  0  0  0  0  0
   13.4082  132.0890   -3.4872 C   0  0  0  0  0  0  0  0  0  0  0  0
   16.4678  134.0527   -6.8160 C   0  0  0  0  0  0  0  0  0  0  0  0
   18.2689  135.6832   -6.3617 C   0  0  0  0  0  0  0  0  0  0  0  0
   15.4271  134.3893   -7.8662 C   0  0  0  0  0  0  0  0  0  0  0  0
   16.7949  131.9034   -2.1347 O   0  0  0  0  0  0  0  0  0  0  0  0
   14.5403  131.6060   -2.8375 C   0  0  0  0  0  0  0  0  0  0  0  0
   17.9067  132.7199   -2.2128 C   0  0  0  0  0  0  0  0  0  0  0  0
   18.7450  132.6490   -3.3269 C   0  0  0  0  0  0  0  0  0  0  0  0
   18.1953  133.5980   -1.1584 C   0  0  0  0  0  0  0  0  0  0  0  0
   19.8369  133.5179   -3.4096 C   0  0  0  0  0  0  0  0  0  0  0  0
   18.4882  131.7283   -4.3962 C   0  0  0  0  0  0  0  0  0  0  0  0
   19.2938  134.4748   -1.2206 C   0  0  0  0  0  0  0  0  0  0  0  0
   20.0953  134.4297   -2.3774 C   0  0  0  0  0  0  0  0  0  0  0  0
   18.3016  130.9895   -5.2729 N   0  0  0  0  0  0  0  0  0  0  0  0
   19.5883  135.4915   -0.1017 C   0  0  2  0  0  0  0  0  0  0  0  0
   19.9716  134.7944    1.1831 C   0  0  0  0  0  0  0  0  0  0  0  0
   18.3500  136.4021    0.0960 C   0  0  0  0  0  0  0  0  0  0  0  0
   20.6907  136.4019   -0.4542 N   0  0  0  0  0  0  0  0  0  0  0  0
   20.6202  133.5755    1.2830 N   0  0  0  0  0  0  0  0  0  0  0  0
   19.7697  135.1584    2.5051 C   0  0  0  0  0  0  0  0  0  0  0  0
   20.7848  133.2964    2.6130 C   0  0  0  0  0  0  0  0  0  0  0  0
   21.0637  132.7052    0.2221 C   0  0  0  0  0  0  0  0  0  0  0  0
   20.2770  134.2340    3.3746 N   0  0  0  0  0  0  0  0  0  0  0  0
  1  2  1  0
  1  3  1  0
  1  4  1  0
  1  5  1  1
  2  6  4  0
  2  7  4  0
  3  8  1  0
  3  9  2  0
  4 10  1  0
  5 11  1  0
  6 12  4  0
  7 13  4  0
  8 14  1  0
  8 15  1  0
 10 16  1  0
 14 16  1  0
 12 17  1  0
 12 18  4  0
 13 18  4  0
 17 19  1  0
 19 20  4  0
 19 21  4  0
 20 22  4  0
 20 23  1  0
 21 24  4  0
 22 25  4  0
 24 25  4  0
 23 26  3  0
 24 27  1  0
 27 28  1  0
 27 29  1  1
 27 30  1  0
 28 31  4  0
 28 32  4  0
 31 33  4  0
 31 34  1  0
 32 35  4  0
 33 35  4  0
M  END
