1NAV_IH5_A_600
     RDKit          3D

 23 24  0  0  0  0  0  0  0  0999 V2000
   49.8360   17.9920   19.6908 O   0  0  0  0  0  0  0  0  0  0  0  0
   49.2159   19.1986   19.7216 C   0  0  0  0  0  0  0  0  0  0  0  0
   49.6629   20.2605   19.2659 O   0  0  0  0  0  0  0  0  0  0  0  0
   47.9024   19.1547   20.3418 C   0  0  0  0  0  0  0  0  0  0  0  0
   46.8895   18.1257   19.9626 C   0  0  0  0  0  0  0  0  0  0  0  0
   45.7070   18.1245   20.7621 C   0  0  0  0  0  0  0  0  0  0  0  0
   44.6724   17.1825   20.5109 C   0  0  0  0  0  0  0  0  0  0  0  0
   44.7967   16.2018   19.4500 C   0  0  0  0  0  0  0  0  0  0  0  0
   43.8781   15.2527   19.1404 O   0  0  0  0  0  0  0  0  0  0  0  0
   43.9386   13.9381   19.7957 C   0  0  0  0  0  0  0  0  0  0  0  0
   44.3347   13.7413   21.2034 C   0  0  0  0  0  0  0  0  0  0  0  0
   44.3540   12.4205   21.7638 C   0  0  0  0  0  0  0  0  0  0  0  0
   43.9853   11.2744   20.9797 C   0  0  0  0  0  0  0  0  0  0  0  0
   44.0148   10.0173   21.5656 O   0  0  0  0  0  0  0  0  0  0  0  0
   43.5916   11.4261   19.5795 C   0  0  0  0  0  0  0  0  0  0  0  0
   43.5723   12.7695   19.0084 C   0  0  0  0  0  0  0  0  0  0  0  0
   43.1915   10.1596   18.7264 C   0  0  2  0  0  0  0  0  0  0  0  0
   44.4195    9.7800   17.8703 C   0  0  0  0  0  0  0  0  0  0  0  0
   41.9568   10.4247   17.7706 C   0  0  0  0  0  0  0  0  0  0  0  0
   45.9729   16.2078   18.6641 C   0  0  0  0  0  0  0  0  0  0  0  0
   47.0262   17.1504   18.8860 C   0  0  0  0  0  0  0  0  0  0  0  0
   46.1854   15.0769   17.4105 Cl  0  0  0  0  0  0  0  0  0  0  0  0
   43.2900   17.2352   21.4532 Cl  0  0  0  0  0  0  0  0  0  0  0  0
  1  2  1  0
  2  3  2  0
  2  4  1  0
  4  5  1  0
  5  6  2  0
  6  7  1  0
  7  8  2  0
  8  9  1  0
  9 10  1  0
 10 11  2  0
 11 12  1  0
 12 13  2  0
 13 14  1  0
 13 15  1  0
 10 16  1  0
 15 16  2  0
 15 17  1  0
 17 18  1  6
 17 19  1  0
  8 20  1  0
  5 21  1  0
 20 21  2  0
 20 22  1  0
  7 23  1  0
M  END
