8HO0_3ZI_A_402
     RDKit          3D

 22 25  0  0  0  0  0  0  0  0999 V2000
   23.3306   22.0517   -4.8669 C   0  0  1  0  0  0  0  0  0  0  0  0
   25.3878   24.4782   -8.1865 C   0  0  0  0  0  0  0  0  0  0  0  0
   25.4654   25.6273   -6.0485 C   0  0  0  0  0  0  0  0  0  0  0  0
   25.2480   24.4684   -6.8028 C   0  0  0  0  0  0  0  0  0  0  0  0
   23.9320   20.1560   -3.6276 O   0  0  0  0  0  0  0  0  0  0  0  0
   22.5065   21.2007   -1.1693 C   0  0  0  0  0  0  0  0  0  0  0  0
   21.6046   23.5174   -3.8206 C   0  0  0  0  0  0  0  0  0  0  0  0
   24.6466   22.8054   -5.0168 C   0  0  0  0  0  0  0  0  0  0  0  0
   24.8829   23.1710   -6.4238 C   0  0  0  0  0  0  0  0  0  0  0  0
   25.7472   25.6819   -8.7534 C   0  0  0  0  0  0  0  0  0  0  0  0
   25.9660   26.8331   -8.0356 C   0  0  0  0  0  0  0  0  0  0  0  0
   25.8233   26.8055   -6.6650 C   0  0  0  0  0  0  0  0  0  0  0  0
   23.2728   21.2259   -3.6478 C   0  0  0  0  0  0  0  0  0  0  0  0
   21.4682   22.6749   -2.6318 C   0  0  2  0  0  0  0  0  0  0  0  0
   21.6793   23.4285   -1.3406 C   0  0  0  0  0  0  0  0  0  0  0  0
   22.4059   22.5023   -0.4047 C   0  0  0  0  0  0  0  0  0  0  0  0
   24.8101   22.4268   -7.5785 C   0  0  0  0  0  0  0  0  0  0  0  0
   25.8970   25.7433  -10.1011 F   0  0  0  0  0  0  0  0  0  0  0  0
   22.4879   21.6495   -2.5436 N   0  0  0  0  0  0  0  0  0  0  0  0
   22.2743   23.0272   -4.9743 N   0  0  0  0  0  0  0  0  0  0  0  0
   25.1178   23.2360   -8.6216 N   0  0  0  0  0  0  0  0  0  0  0  0
   21.1280   24.6981   -3.8409 O   0  0  0  0  0  0  0  0  0  0  0  0
  2  4  1  0
  3  4  2  0
  1  8  1  1
  4  9  1  0
  8  9  1  0
  2 10  2  0
 10 11  1  0
 11 12  2  0
  3 12  1  0
  1 13  1  0
  5 13  2  0
  7 14  1  0
 14 15  1  1
  6 16  1  0
 15 16  1  0
  9 17  2  0
 10 18  1  0
 13 19  1  0
 14 19  1  0
  6 19  1  0
  1 20  1  0
  7 20  1  0
  2 21  1  0
 17 21  1  0
  7 22  2  0
M  END
$$$$
