7TYP_KUR_A_602
     RDKit          3D

 37 42  0  0  0  0  0  0  0  0999 V2000
  -36.2500    8.2492   21.4346 N   0  0  0  0  0  0  0  0  0  0  0  0
  -32.3358   10.8782   18.1389 C   0  0  0  0  0  0  0  0  0  0  0  0
  -30.9639   12.4122   16.9622 C   0  0  0  0  0  0  0  0  0  0  0  0
  -31.9232   11.4755   16.9823 N   0  0  0  0  0  0  0  0  0  0  0  0
  -30.4123   12.7413   18.1916 C   0  0  0  0  0  0  0  0  0  0  0  0
  -35.3571    8.9927   17.7777 O   0  0  0  0  0  0  0  0  0  0  0  0
  -35.4496    9.0701   20.7146 C   0  0  0  0  0  0  0  0  0  0  0  0
  -33.3165    9.6575   19.7227 C   0  0  0  0  0  0  0  0  0  0  0  0
  -33.3079    9.8950   18.3653 C   0  0  0  0  0  0  0  0  0  0  0  0
  -31.8077   11.1898   19.3368 N   0  0  0  0  0  0  0  0  0  0  0  0
  -35.7727    7.0952   21.9637 C   0  0  0  0  0  0  0  0  0  0  0  0
  -34.4608    6.7624   21.7621 C   0  0  0  0  0  0  0  0  0  0  0  0
  -34.1278    8.7374   20.5086 C   0  0  0  0  0  0  0  0  0  0  0  0
  -32.3885   10.4688   20.2628 N   0  0  0  0  0  0  0  0  0  0  0  0
  -33.6597    7.5947   21.0338 N   0  0  0  0  0  0  0  0  0  0  0  0
  -35.9974   10.3307   20.1482 C   0  0  0  0  0  0  0  0  0  0  0  0
  -30.3356   12.4283   20.4901 O   0  0  0  0  0  0  0  0  0  0  0  0
  -30.8425   12.1249   19.3624 C   0  0  0  0  0  0  0  0  0  0  0  0
  -30.5073   13.0537   15.7371 C   0  0  0  0  0  0  0  0  0  0  0  0
  -30.7525   12.4892   14.5068 C   0  0  0  0  0  0  0  0  0  0  0  0
  -30.3274   13.0919   13.3239 C   0  0  0  0  0  0  0  0  0  0  0  0
  -29.6361   14.2901   13.3352 C   0  0  0  0  0  0  0  0  0  0  0  0
  -29.3880   14.8587   14.5770 C   0  0  0  0  0  0  0  0  0  0  0  0
  -29.8196   14.2443   15.7527 C   0  0  0  0  0  0  0  0  0  0  0  0
  -29.1570   14.9867   12.1400 C   0  0  2  0  0  0  0  0  0  0  0  0
  -30.2728   15.6432   11.3561 C   0  0  0  0  0  0  0  0  0  0  0  0
  -29.6600   16.4165   10.2119 C   0  0  0  0  0  0  0  0  0  0  0  0
  -28.8683   15.5155    9.3093 C   0  0  0  0  0  0  0  0  0  0  0  0
  -27.7602   14.8831   10.1068 C   0  0  0  0  0  0  0  0  0  0  0  0
  -28.3282   14.0757   11.2513 C   0  0  0  0  0  0  0  0  0  0  0  0
  -34.1614    9.2298   17.4121 C   0  0  0  0  0  0  0  0  0  0  0  0
  -34.3063    8.3523   14.9054 C   0  0  0  0  0  0  0  0  0  0  0  0
  -33.1888    9.0635   14.1542 C   0  0  1  0  0  0  0  0  0  0  0  0
  -32.4148    8.7937   15.4316 C   0  0  0  0  0  0  0  0  0  0  0  0
  -32.7108    8.2676   12.9580 C   0  0  0  0  0  0  0  0  0  0  0  0
  -31.7470    7.3896   13.4487 F   0  0  0  0  0  0  0  0  0  0  0  0
  -33.7030    8.8524   16.1247 N   0  0  0  0  0  0  0  0  0  0  0  0
  3  4  1  0
  2  4  1  0
  3  5  2  0
  1  7  2  0
  2  9  2  0
  8  9  1  0
  2 10  1  0
  1 11  1  0
 11 12  2  0
  8 13  1  0
  7 13  1  0
 10 14  1  0
  8 14  2  0
 13 15  2  0
 12 15  1  0
 16  7  1  1
  5 18  1  0
 17 18  2  0
 10 18  1  0
  3 19  1  0
 19 20  2  0
 20 21  1  0
 21 22  2  0
 22 23  1  0
 23 24  2  0
 19 24  1  0
 25 22  1  1
 26 25  1  1
 27 26  1  6
 28 27  1  1
 29 28  1  1
 30 29  1  6
 25 30  1  0
  9 31  1  0
  6 31  2  0
 32 33  1  0
 33 34  1  0
 33 35  1  6
 35 36  1  6
 34 37  1  1
 32 37  1  6
 31 37  1  0
M  END
$$$$
