7LZQ_YJV_A_201
     RDKit          3D

 35 37  0  0  0  0  0  0  0  0999 V2000
    1.9004   -2.3642   -3.1672 C   0  0  0  0  0  0  0  0  0  0  0  0
   -0.1356   -2.5308   -1.2931 C   0  0  0  0  0  0  0  0  0  0  0  0
   -1.3110   -0.4316   -0.5929 C   0  0  0  0  0  0  0  0  0  0  0  0
   -1.0583   -1.7254   -0.1057 C   0  0  0  0  0  0  0  0  0  0  0  0
    2.4799   -1.9207   -0.0575 C   0  0  0  0  0  0  0  0  0  0  0  0
    1.4030   -3.6225   -2.8121 C   0  0  0  0  0  0  0  0  0  0  0  0
    0.2727   -2.1156    0.0186 C   0  0  0  0  0  0  0  0  0  0  0  0
    0.7643   -3.2873    0.4711 N   0  0  0  0  0  4  0  0  0  0  0  0
    0.0181   -4.4245    1.0081 C   0  0  0  0  0  0  0  0  0  0  0  0
   -0.2978   -5.3892   -0.0934 C   0  0  0  0  0  0  0  0  0  0  0  0
   -0.7089   -6.5447    0.1990 O   0  0  0  0  0  0  0  0  0  0  0  0
   -0.5801    1.7631   -1.4270 C   0  0  0  0  0  0  0  0  0  0  0  0
    0.3936   -1.2976   -1.6775 C   0  0  0  0  0  0  0  0  0  0  0  0
    2.1133   -3.1677    0.4360 C   0  0  0  0  0  0  0  0  0  0  0  0
    1.0322    0.0132   -0.7944 C   0  0  0  0  0  0  0  0  0  0  0  0
    0.3593   -3.7118   -1.8716 C   0  0  0  0  0  0  0  0  0  0  0  0
    1.2907   -1.2686   -0.3144 C   0  0  0  0  0  0  0  0  0  0  0  0
    1.3901   -1.2405   -2.5989 N   0  0  0  0  0  0  0  0  0  0  0  0
   -0.1482   -4.9951   -1.4658 N   0  0  0  0  0  0  0  0  0  0  0  0
   -0.2775    0.4136   -0.9362 N   0  0  0  0  0  4  0  0  0  0  0  0
    1.9860    0.7860   -1.0874 O   0  0  0  0  0  0  0  0  0  0  0  0
    2.0770   -5.0532   -3.5818 Cl  0  0  0  0  0  0  0  0  0  0  0  0
    2.6947   -2.2782   -3.8969 H   0  0  0  0  0  0  0  0  0  0  0  0
   -0.9065   -2.5622   -0.5343 H   0  0  0  0  0  0  0  0  0  0  0  0
   -2.3413   -0.1113   -0.6924 H   0  0  0  0  0  0  0  0  0  0  0  0
   -1.8733   -2.3843    0.1595 H   0  0  0  0  0  0  0  0  0  0  0  0
    3.4834   -1.5392   -0.1920 H   0  0  0  0  0  0  0  0  0  0  0  0
   -0.9288   -4.0718    1.4716 H   0  0  0  0  0  0  0  0  0  0  0  0
    0.6079   -4.9212    1.8077 H   0  0  0  0  0  0  0  0  0  0  0  0
   -1.6678    1.9005   -1.6101 H   0  0  0  0  0  0  0  0  0  0  0  0
   -0.0502    1.9465   -2.3861 H   0  0  0  0  0  0  0  0  0  0  0  0
   -0.2524    2.5152   -0.6782 H   0  0  0  0  0  0  0  0  0  0  0  0
    0.0168   -0.3846   -1.2363 H   0  0  0  0  0  0  0  0  0  0  0  0
    2.8012   -3.9362    0.7648 H   0  0  0  0  0  0  0  0  0  0  0  0
   -0.4472   -5.6699   -2.2049 H   0  0  0  0  0  0  0  0  0  0  0  0
  3  4  4  0
  1  6  4  0
  4  7  4  0
  7  8  4  0
  8  9  1  0
  9 10  1  0
 10 11  2  0
  2 13  4  0
  8 14  4  0
  5 14  4  0
  6 16  4  0
  2 16  4  0
  5 17  4  0
  7 17  4  0
 15 17  4  0
  1 18  4  0
 13 18  4  0
 16 19  1  0
 10 19  1  0
 15 20  4  0
  3 20  4  0
 12 20  1  0
 15 21  2  0
  6 22  1  0
  1 23  1  0
  2 24  1  0
  3 25  1  0
  4 26  1  0
  5 27  1  0
  9 28  1  0
  9 29  1  0
 12 30  1  0
 12 31  1  0
 12 32  1  0
 13 33  1  0
 14 34  1  0
 19 35  1  0
M  CHG  2   8   1  20   1
M  END
