
     RDKit          3D

 31 34  0  0  0  0  0  0  0  0999 V2000
    8.4460    3.9253   -8.1695 C   0  0  0  0  0  0  0  0  0  0  0  0
    7.6413    3.9497   -6.8783 C   0  0  0  0  0  0  0  0  0  0  0  0
    6.4583    3.0207   -6.9320 C   0  0  0  0  0  0  0  0  0  0  0  0
    5.9405    2.1808   -5.9544 C   0  0  0  0  0  0  0  0  0  0  0  0
    4.7649    1.4592   -6.4020 C   0  0  0  0  0  0  0  0  0  0  0  0
    4.4562    1.8057   -7.7076 C   0  0  0  0  0  0  0  0  0  0  0  0
    5.5340    2.9387   -8.3729 S   0  0  0  0  0  0  0  0  0  0  0  0
    3.4322    1.3445   -8.4435 N   0  0  0  0  0  0  0  0  0  0  0  0
    2.6789    0.4763   -7.7702 C   0  0  0  0  0  0  0  0  0  0  0  0
    2.8569    0.0455   -6.5134 N   0  0  0  0  0  0  0  0  0  0  0  0
    3.8988    0.5201   -5.7926 C   0  0  0  0  0  0  0  0  0  0  0  0
    4.0808    0.0741   -4.4801 N   0  0  0  0  0  0  0  0  0  0  0  0
    3.1727   -1.0022   -4.0244 C   0  0  2  0  0  0  0  0  0  0  0  0
    3.0929   -1.0127   -2.4876 C   0  0  0  0  0  0  0  0  0  0  0  0
    2.6566    0.3077   -1.8962 C   0  0  0  0  0  0  0  0  0  0  0  0
    1.2953    0.6150   -1.7685 C   0  0  0  0  0  0  0  0  0  0  0  0
    0.8950    1.8403   -1.2327 C   0  0  0  0  0  0  0  0  0  0  0  0
    1.8496    2.7693   -0.8228 C   0  0  0  0  0  0  0  0  0  0  0  0
    3.2055    2.4747   -0.9487 C   0  0  0  0  0  0  0  0  0  0  0  0
    3.6072    1.2500   -1.4830 C   0  0  0  0  0  0  0  0  0  0  0  0
    3.6766   -2.3821   -4.4552 C   0  0  0  0  0  0  0  0  0  0  0  0
    3.0861   -3.4435   -4.3188 O   0  0  0  0  0  0  0  0  0  0  0  0
    4.9383   -2.3773   -4.9514 O   0  0  0  0  0  0  0  0  0  0  0  0
    6.5620    2.0915   -4.6355 C   0  0  0  0  0  0  0  0  0  0  0  0
    6.2171    2.9668   -3.5824 C   0  0  0  0  0  0  0  0  0  0  0  0
    5.1736    4.0428   -3.7500 C   0  0  0  0  0  0  0  0  0  0  0  0
    6.8425    2.7749   -2.3350 C   0  0  0  0  0  0  0  0  0  0  0  0
    6.4709    3.7673   -0.9665 Cl  0  0  0  0  0  0  0  0  0  0  0  0
    7.7850    1.7585   -2.1455 C   0  0  0  0  0  0  0  0  0  0  0  0
    8.1178    0.9064   -3.1933 C   0  0  0  0  0  0  0  0  0  0  0  0
    7.5061    1.0701   -4.4323 C   0  0  0  0  0  0  0  0  0  0  0  0
  1  2  1  0
  2  3  1  0
  3  4  4  0
  4  5  4  0
  5  6  4  0
  6  7  4  0
  3  7  4  0
  6  8  4  0
  8  9  4  0
  9 10  4  0
 10 11  4  0
  5 11  4  0
 11 12  1  0
 12 13  1  0
 13 14  1  1
 14 15  1  0
 15 16  4  0
 16 17  4  0
 17 18  4  0
 18 19  4  0
 15 20  4  0
 19 20  4  0
 13 21  1  0
 21 22  2  0
 21 23  1  0
  4 24  1  0
 24 25  4  0
 25 26  1  0
 25 27  4  0
 27 28  1  0
 27 29  4  0
 29 30  4  0
 24 31  4  0
 30 31  4  0
M  END
