1YGC_905_H_1
     RDKit          3D

 38 40  0  0  0  0  0  0  0  0999 V2000
   12.2471   38.5465   28.4780 O   0  0  0  0  0  0  0  0  0  0  0  0
   11.7932   39.0888   29.6710 C   0  0  0  0  0  0  0  0  0  0  0  0
   10.9196   40.1597   29.6377 C   0  0  0  0  0  0  0  0  0  0  0  0
   10.4166   40.7620   30.7707 C   0  0  0  0  0  0  0  0  0  0  0  0
    9.5043   41.8816   30.6999 N   0  0  0  0  0  0  0  0  0  0  0  0
    9.3925   42.5438   29.4070 C   0  0  1  0  0  0  0  0  0  0  0  0
    8.0838   42.1315   28.9086 C   0  0  0  0  0  0  0  0  0  0  0  0
    7.1809   42.0344   29.8654 O   0  0  0  0  0  0  0  0  0  0  0  0
    7.5995   41.8190   27.6519 N   0  0  0  0  0  0  0  0  0  0  0  0
    5.9060   41.4076   27.4711 S   0  0  2  0  0  0  0  0  0  0  0  0
    5.4970   41.5984   26.0466 O   0  0  0  0  0  0  0  0  0  0  0  0
    5.1383   42.2592   28.4122 O   0  0  0  0  0  0  0  0  0  0  0  0
    5.7050   39.7247   27.9372 C   0  0  0  0  0  0  0  0  0  0  0  0
    6.2722   38.7814   27.0935 C   0  0  0  0  0  0  0  0  0  0  0  0
    6.1313   37.4371   27.4514 C   0  0  0  0  0  0  0  0  0  0  0  0
    5.4555   37.0570   28.5992 C   0  0  0  0  0  0  0  0  0  0  0  0
    4.8901   38.0059   29.4404 C   0  0  0  0  0  0  0  0  0  0  0  0
    4.1998   37.6189   30.6242 N   0  0  0  0  0  0  0  0  0  0  0  0
    5.0320   39.3443   29.0803 C   0  0  0  0  0  0  0  0  0  0  0  0
    9.7466   43.9546   29.4934 C   0  0  0  0  0  0  0  0  0  0  0  0
    9.9377   44.7791   28.4026 C   0  0  0  0  0  0  0  0  0  0  0  0
    9.9209   44.3079   27.1471 F   0  0  0  0  0  0  0  0  0  0  0  0
   10.2231   46.1509   28.5090 C   0  0  0  0  0  0  0  0  0  0  0  0
   10.3857   46.8526   27.3496 O   0  0  0  0  0  0  0  0  0  0  0  0
    9.8766   48.1372   27.1456 C   0  0  0  0  0  0  0  0  0  0  0  0
   10.3174   48.6557   25.8156 C   0  0  0  0  0  0  0  0  0  0  0  0
   10.3313   46.7501   29.7362 C   0  0  0  0  0  0  0  0  0  0  0  0
   10.1494   45.9585   30.8440 C   0  0  0  0  0  0  0  0  0  0  0  0
   10.2456   46.5095   32.1148 O   0  0  0  0  0  0  0  0  0  0  0  0
   10.6951   45.8145   33.2488 C   0  0  0  0  0  0  0  0  0  0  0  0
   10.7737   46.6184   34.5058 C   0  0  0  0  0  0  0  0  0  0  0  0
    9.8640   44.5922   30.7399 C   0  0  0  0  0  0  0  0  0  0  0  0
   10.8328   40.2349   31.9772 C   0  0  0  0  0  0  0  0  0  0  0  0
   11.7143   39.1531   32.0410 C   0  0  0  0  0  0  0  0  0  0  0  0
   12.1996   38.5735   30.8865 C   0  0  0  0  0  0  0  0  0  0  0  0
   13.1212   37.4452   30.8929 C   0  0  0  0  0  0  0  0  0  0  0  0
   13.4937   36.9836   32.0589 N   0  0  0  0  0  0  0  0  0  0  0  0
   13.6280   36.8315   29.7149 N   0  0  0  0  0  0  0  0  0  0  0  0
  1  2  1  0
  2  3  2  0
  3  4  1  0
  4  5  1  0
  6  5  1  1
  6  7  1  0
  7  8  2  0
  7  9  1  0
 10  9  1  6
 10 11  2  0
 10 12  2  0
 10 13  1  0
 13 14  2  0
 14 15  1  0
 15 16  2  0
 16 17  1  0
 17 18  1  0
 13 19  1  0
 17 19  2  0
  6 20  1  0
 20 21  2  0
 21 22  1  0
 21 23  1  0
 23 24  1  0
 24 25  1  0
 25 26  1  0
 23 27  2  0
 27 28  1  0
 28 29  1  0
 29 30  1  0
 30 31  1  0
 20 32  1  0
 28 32  2  0
  4 33  2  0
 33 34  1  0
  2 35  1  0
 34 35  2  0
 35 36  1  0
 36 37  2  0
 36 38  1  0
M  END
$$$$
