1YGC_905_H_1
     RDKit          3D

 38 40  0  0  0  0  0  0  0  0999 V2000
    0.8853   26.2702   34.8728 O   0  0  0  0  0  0  0  0  0  0  0  0
    1.6943   26.0804   35.9832 C   0  0  0  0  0  0  0  0  0  0  0  0
    1.2060   26.3969   37.2372 C   0  0  0  0  0  0  0  0  0  0  0  0
    1.9365   26.2412   38.3956 C   0  0  0  0  0  0  0  0  0  0  0  0
    1.3950   26.5830   39.6920 N   0  0  0  0  0  0  0  0  0  0  0  0
    0.0187   27.0607   39.7125 C   0  0  1  0  0  0  0  0  0  0  0  0
   -0.4175   26.8283   41.0861 C   0  0  0  0  0  0  0  0  0  0  0  0
    0.5252   27.0873   41.9716 O   0  0  0  0  0  0  0  0  0  0  0  0
   -1.6035   26.3913   41.6466 N   0  0  0  0  0  0  0  0  0  0  0  0
   -1.7224   26.2594   43.3897 S   0  0  2  0  0  0  0  0  0  0  0  0
   -0.3601   26.0493   43.9669 O   0  0  0  0  0  0  0  0  0  0  0  0
   -2.6554   25.1458   43.6891 O   0  0  0  0  0  0  0  0  0  0  0  0
   -2.4128   27.7563   43.9999 C   0  0  0  0  0  0  0  0  0  0  0  0
   -3.7642   27.9531   43.7586 C   0  0  0  0  0  0  0  0  0  0  0  0
   -4.3347   29.1338   44.2440 C   0  0  0  0  0  0  0  0  0  0  0  0
   -3.5872   30.0712   44.9378 C   0  0  0  0  0  0  0  0  0  0  0  0
   -2.2346   29.8685   45.1768 C   0  0  0  0  0  0  0  0  0  0  0  0
   -1.4645   30.8273   45.8948 N   0  0  0  0  0  0  0  0  0  0  0  0
   -1.6695   28.6912   44.6912 C   0  0  0  0  0  0  0  0  0  0  0  0
   -0.1014   28.3798   39.1052 C   0  0  0  0  0  0  0  0  0  0  0  0
   -1.2128   28.8232   38.4167 C   0  0  0  0  0  0  0  0  0  0  0  0
   -2.2501   28.0158   38.1510 F   0  0  0  0  0  0  0  0  0  0  0  0
   -1.3300   30.1198   37.8877 C   0  0  0  0  0  0  0  0  0  0  0  0
   -2.4856   30.4306   37.2312 O   0  0  0  0  0  0  0  0  0  0  0  0
   -2.7500   31.6886   36.6849 C   0  0  0  0  0  0  0  0  0  0  0  0
   -4.1033   31.6961   36.0519 C   0  0  0  0  0  0  0  0  0  0  0  0
   -0.3155   31.0291   38.0324 C   0  0  0  0  0  0  0  0  0  0  0  0
    0.8070   30.6205   38.7105 C   0  0  0  0  0  0  0  0  0  0  0  0
    1.8679   31.4981   38.8900 O   0  0  0  0  0  0  0  0  0  0  0  0
    3.0581   31.4665   38.1460 C   0  0  0  0  0  0  0  0  0  0  0  0
    3.9879   32.6140   38.3724 C   0  0  0  0  0  0  0  0  0  0  0  0
    0.9251   29.3299   39.2390 C   0  0  0  0  0  0  0  0  0  0  0  0
    3.2145   25.7397   38.2475 C   0  0  0  0  0  0  0  0  0  0  0  0
    3.7336   25.4108   36.9931 C   0  0  0  0  0  0  0  0  0  0  0  0
    2.9750   25.5795   35.8527 C   0  0  0  0  0  0  0  0  0  0  0  0
    3.4647   25.2547   34.5197 C   0  0  0  0  0  0  0  0  0  0  0  0
    4.7313   24.9477   34.4059 N   0  0  0  0  0  0  0  0  0  0  0  0
    2.6487   25.2558   33.3555 N   0  0  0  0  0  0  0  0  0  0  0  0
  1  2  1  0
  2  3  2  0
  3  4  1  0
  4  5  1  0
  6  5  1  1
  6  7  1  0
  7  8  2  0
  7  9  1  0
 10  9  1  6
 10 11  2  0
 10 12  2  0
 10 13  1  0
 13 14  2  0
 14 15  1  0
 15 16  2  0
 16 17  1  0
 17 18  1  0
 13 19  1  0
 17 19  2  0
  6 20  1  0
 20 21  2  0
 21 22  1  0
 21 23  1  0
 23 24  1  0
 24 25  1  0
 25 26  1  0
 23 27  2  0
 27 28  1  0
 28 29  1  0
 29 30  1  0
 30 31  1  0
 20 32  1  0
 28 32  2  0
  4 33  2  0
 33 34  1  0
  2 35  1  0
 34 35  2  0
 35 36  1  0
 36 37  2  0
 36 38  1  0
M  END
$$$$
