1YGC_905_H_1
     RDKit          3D

 38 40  0  0  0  0  0  0  0  0999 V2000
   13.4908   43.7216   33.0907 O   0  0  0  0  0  0  0  0  0  0  0  0
   12.4266   44.4591   32.5939 C   0  0  0  0  0  0  0  0  0  0  0  0
   11.2942   44.6195   33.3705 C   0  0  0  0  0  0  0  0  0  0  0  0
   10.1900   45.3351   32.9604 C   0  0  0  0  0  0  0  0  0  0  0  0
    9.0209   45.4827   33.7984 N   0  0  0  0  0  0  0  0  0  0  0  0
    8.9803   44.6627   35.0021 C   0  0  1  0  0  0  0  0  0  0  0  0
    8.0218   45.3461   35.8653 C   0  0  0  0  0  0  0  0  0  0  0  0
    7.1227   46.0325   35.1866 O   0  0  0  0  0  0  0  0  0  0  0  0
    7.8653   45.4267   37.2366 N   0  0  0  0  0  0  0  0  0  0  0  0
    6.4406   46.2137   37.8853 S   0  0  2  0  0  0  0  0  0  0  0  0
    6.3898   47.6271   37.4028 O   0  0  0  0  0  0  0  0  0  0  0  0
    6.5085   46.1093   39.3633 O   0  0  0  0  0  0  0  0  0  0  0  0
    5.0298   45.3312   37.3193 C   0  0  0  0  0  0  0  0  0  0  0  0
    4.5000   44.3936   38.1932 C   0  0  0  0  0  0  0  0  0  0  0  0
    3.3718   43.6871   37.7654 C   0  0  0  0  0  0  0  0  0  0  0  0
    2.8021   43.9098   36.5226 C   0  0  0  0  0  0  0  0  0  0  0  0
    3.3365   44.8502   35.6520 C   0  0  0  0  0  0  0  0  0  0  0  0
    2.7499   45.0859   34.3761 N   0  0  0  0  0  0  0  0  0  0  0  0
    4.4610   45.5518   36.0815 C   0  0  0  0  0  0  0  0  0  0  0  0
    8.8219   43.2494   34.6845 C   0  0  0  0  0  0  0  0  0  0  0  0
    9.1450   42.2164   35.5415 C   0  0  0  0  0  0  0  0  0  0  0  0
    9.7481   42.4355   36.7191 F   0  0  0  0  0  0  0  0  0  0  0  0
    8.9311   40.8614   35.2368 C   0  0  0  0  0  0  0  0  0  0  0  0
    9.2929   39.9394   36.1759 O   0  0  0  0  0  0  0  0  0  0  0  0
    8.6945   38.6832   36.2966 C   0  0  0  0  0  0  0  0  0  0  0  0
    9.3493   37.9092   37.3942 C   0  0  0  0  0  0  0  0  0  0  0  0
    8.3789   40.4922   34.0385 C   0  0  0  0  0  0  0  0  0  0  0  0
    8.0474   41.4949   33.1602 C   0  0  0  0  0  0  0  0  0  0  0  0
    7.4832   41.1826   31.9305 O   0  0  0  0  0  0  0  0  0  0  0  0
    7.8518   41.7791   30.7142 C   0  0  0  0  0  0  0  0  0  0  0  0
    7.1232   41.2822   29.5081 C   0  0  0  0  0  0  0  0  0  0  0  0
    8.2587   42.8451   33.4624 C   0  0  0  0  0  0  0  0  0  0  0  0
   10.2640   45.9034   31.7042 C   0  0  0  0  0  0  0  0  0  0  0  0
   11.3955   45.7584   30.8980 C   0  0  0  0  0  0  0  0  0  0  0  0
   12.4843   45.0345   31.3394 C   0  0  0  0  0  0  0  0  0  0  0  0
   13.6892   44.8495   30.5417 C   0  0  0  0  0  0  0  0  0  0  0  0
   13.6652   45.2906   29.3103 N   0  0  0  0  0  0  0  0  0  0  0  0
   14.8699   44.2229   31.0263 N   0  0  0  0  0  0  0  0  0  0  0  0
  1  2  1  0
  2  3  2  0
  3  4  1  0
  4  5  1  0
  6  5  1  6
  6  7  1  0
  7  8  2  0
  7  9  1  0
 10  9  1  6
 10 11  2  0
 10 12  2  0
 10 13  1  0
 13 14  2  0
 14 15  1  0
 15 16  2  0
 16 17  1  0
 17 18  1  0
 13 19  1  0
 17 19  2  0
  6 20  1  0
 20 21  2  0
 21 22  1  0
 21 23  1  0
 23 24  1  0
 24 25  1  0
 25 26  1  0
 23 27  2  0
 27 28  1  0
 28 29  1  0
 29 30  1  0
 30 31  1  0
 20 32  1  0
 28 32  2  0
  4 33  2  0
 33 34  1  0
  2 35  1  0
 34 35  2  0
 35 36  1  0
 36 37  2  0
 36 38  1  0
M  END
$$$$
