1YGC_905_H_1
     RDKit          3D

 38 40  0  0  0  0  0  0  0  0999 V2000
   14.2758   36.9237   31.3869 O   0  0  0  0  0  0  0  0  0  0  0  0
   13.2167   37.7657   31.0828 C   0  0  0  0  0  0  0  0  0  0  0  0
   12.5277   38.3833   32.1099 C   0  0  0  0  0  0  0  0  0  0  0  0
   11.4641   39.2353   31.9033 C   0  0  0  0  0  0  0  0  0  0  0  0
   10.7648   39.8646   33.0014 N   0  0  0  0  0  0  0  0  0  0  0  0
    9.8518   40.9450   32.6523 C   0  0  1  0  0  0  0  0  0  0  0  0
    8.6039   40.5846   33.3186 C   0  0  0  0  0  0  0  0  0  0  0  0
    8.7266   39.5235   34.0925 O   0  0  0  0  0  0  0  0  0  0  0  0
    7.3284   41.1180   33.3026 N   0  0  0  0  0  0  0  0  0  0  0  0
    6.1616   40.5676   34.4882 S   0  0  2  0  0  0  0  0  0  0  0  0
    5.9984   41.6099   35.5466 O   0  0  0  0  0  0  0  0  0  0  0  0
    6.6473   39.2720   35.0225 O   0  0  0  0  0  0  0  0  0  0  0  0
    4.6336   40.3022   33.6610 C   0  0  0  0  0  0  0  0  0  0  0  0
    3.9983   41.4313   33.1662 C   0  0  0  0  0  0  0  0  0  0  0  0
    2.7857   41.2406   32.4967 C   0  0  0  0  0  0  0  0  0  0  0  0
    2.2369   39.9796   32.3307 C   0  0  0  0  0  0  0  0  0  0  0  0
    2.8777   38.8527   32.8278 C   0  0  0  0  0  0  0  0  0  0  0  0
    2.3194   37.5543   32.6539 N   0  0  0  0  0  0  0  0  0  0  0  0
    4.0855   39.0467   33.4948 C   0  0  0  0  0  0  0  0  0  0  0  0
   10.4598   42.2521   32.8645 C   0  0  0  0  0  0  0  0  0  0  0  0
   10.1486   43.3842   32.1383 C   0  0  0  0  0  0  0  0  0  0  0  0
    9.3236   43.3434   31.0818 F   0  0  0  0  0  0  0  0  0  0  0  0
   10.7057   44.6481   32.3972 C   0  0  0  0  0  0  0  0  0  0  0  0
   10.3085   45.6863   31.6051 O   0  0  0  0  0  0  0  0  0  0  0  0
    9.9694   46.9485   32.0976 C   0  0  0  0  0  0  0  0  0  0  0  0
    9.7384   47.8937   30.9637 C   0  0  0  0  0  0  0  0  0  0  0  0
   11.6123   44.8191   33.4100 C   0  0  0  0  0  0  0  0  0  0  0  0
   11.9469   43.7125   34.1519 C   0  0  0  0  0  0  0  0  0  0  0  0
   12.8595   43.8239   35.1923 O   0  0  0  0  0  0  0  0  0  0  0  0
   14.2098   43.4491   35.1067 C   0  0  0  0  0  0  0  0  0  0  0  0
   15.0335   43.7327   36.3205 C   0  0  0  0  0  0  0  0  0  0  0  0
   11.3922   42.4532   33.8961 C   0  0  0  0  0  0  0  0  0  0  0  0
   11.1050   39.4541   30.5881 C   0  0  0  0  0  0  0  0  0  0  0  0
   11.7834   38.8440   29.5303 C   0  0  0  0  0  0  0  0  0  0  0  0
   12.8444   37.9956   29.7726 C   0  0  0  0  0  0  0  0  0  0  0  0
   13.5871   37.3316   28.7095 C   0  0  0  0  0  0  0  0  0  0  0  0
   14.6694   36.6813   29.0519 N   0  0  0  0  0  0  0  0  0  0  0  0
   13.2012   37.3555   27.3414 N   0  0  0  0  0  0  0  0  0  0  0  0
  1  2  1  0
  2  3  2  0
  3  4  1  0
  4  5  1  0
  6  5  1  1
  6  7  1  0
  7  8  2  0
  7  9  1  0
 10  9  1  6
 10 11  2  0
 10 12  2  0
 10 13  1  0
 13 14  2  0
 14 15  1  0
 15 16  2  0
 16 17  1  0
 17 18  1  0
 13 19  1  0
 17 19  2  0
  6 20  1  0
 20 21  2  0
 21 22  1  0
 21 23  1  0
 23 24  1  0
 24 25  1  0
 25 26  1  0
 23 27  2  0
 27 28  1  0
 28 29  1  0
 29 30  1  0
 30 31  1  0
 20 32  1  0
 28 32  2  0
  4 33  2  0
 33 34  1  0
  2 35  1  0
 34 35  2  0
 35 36  1  0
 36 37  2  0
 36 38  1  0
M  END
$$$$
