1YGC_905_H_1
     RDKit          3D

 38 40  0  0  0  0  0  0  0  0999 V2000
    8.3061   41.8522   38.8264 O   0  0  0  0  0  0  0  0  0  0  0  0
    7.0891   42.5169   38.8013 C   0  0  0  0  0  0  0  0  0  0  0  0
    5.9247   41.8034   39.0159 C   0  0  0  0  0  0  0  0  0  0  0  0
    4.6722   42.3787   39.0100 C   0  0  0  0  0  0  0  0  0  0  0  0
    3.4738   41.6023   39.2378 N   0  0  0  0  0  0  0  0  0  0  0  0
    3.6638   40.1824   39.5028 C   0  0  1  0  0  0  0  0  0  0  0  0
    2.4247   39.7744   40.1581 C   0  0  0  0  0  0  0  0  0  0  0  0
    1.3940   40.5204   39.8102 O   0  0  0  0  0  0  0  0  0  0  0  0
    2.1111   38.7790   41.0649 N   0  0  0  0  0  0  0  0  0  0  0  0
    0.4425   38.5727   41.5579 S   0  0  2  0  0  0  0  0  0  0  0  0
    0.2869   37.2565   42.2484 O   0  0  0  0  0  0  0  0  0  0  0  0
   -0.3987   38.6908   40.3419 O   0  0  0  0  0  0  0  0  0  0  0  0
    0.0368   39.8831   42.6569 C   0  0  0  0  0  0  0  0  0  0  0  0
    0.5794   39.8069   43.9310 C   0  0  0  0  0  0  0  0  0  0  0  0
    0.2761   40.8446   44.8177 C   0  0  0  0  0  0  0  0  0  0  0  0
   -0.5312   41.9069   44.4456 C   0  0  0  0  0  0  0  0  0  0  0  0
   -1.0713   41.9780   43.1685 C   0  0  0  0  0  0  0  0  0  0  0  0
   -1.8967   43.0716   42.7806 N   0  0  0  0  0  0  0  0  0  0  0  0
   -0.7673   40.9421   42.2877 C   0  0  0  0  0  0  0  0  0  0  0  0
    4.1518   39.4764   38.3253 C   0  0  0  0  0  0  0  0  0  0  0  0
    4.9788   38.3717   38.3651 C   0  0  0  0  0  0  0  0  0  0  0  0
    5.4999   37.9182   39.5145 F   0  0  0  0  0  0  0  0  0  0  0  0
    5.3917   37.6714   37.2189 C   0  0  0  0  0  0  0  0  0  0  0  0
    6.2079   36.5924   37.3994 O   0  0  0  0  0  0  0  0  0  0  0  0
    6.6154   35.7494   36.3630 C   0  0  0  0  0  0  0  0  0  0  0  0
    7.1913   34.4907   36.9254 C   0  0  0  0  0  0  0  0  0  0  0  0
    4.9833   38.0665   35.9723 C   0  0  0  0  0  0  0  0  0  0  0  0
    4.1612   39.1643   35.8954 C   0  0  0  0  0  0  0  0  0  0  0  0
    3.7136   39.6116   34.6595 O   0  0  0  0  0  0  0  0  0  0  0  0
    3.2737   40.9195   34.4010 C   0  0  0  0  0  0  0  0  0  0  0  0
    2.8820   41.1977   32.9862 C   0  0  0  0  0  0  0  0  0  0  0  0
    3.7480   39.8623   37.0360 C   0  0  0  0  0  0  0  0  0  0  0  0
    4.6272   43.7386   38.7748 C   0  0  0  0  0  0  0  0  0  0  0  0
    5.7876   44.4847   38.5553 C   0  0  0  0  0  0  0  0  0  0  0  0
    7.0264   43.8769   38.5676 C   0  0  0  0  0  0  0  0  0  0  0  0
    8.2685   44.6045   38.3440 C   0  0  0  0  0  0  0  0  0  0  0  0
    8.1725   45.8741   38.0434 N   0  0  0  0  0  0  0  0  0  0  0  0
    9.5584   44.0132   38.4337 N   0  0  0  0  0  0  0  0  0  0  0  0
  1  2  1  0
  2  3  2  0
  3  4  1  0
  4  5  1  0
  6  5  1  6
  6  7  1  0
  7  8  2  0
  7  9  1  0
 10  9  1  6
 10 11  2  0
 10 12  2  0
 10 13  1  0
 13 14  2  0
 14 15  1  0
 15 16  2  0
 16 17  1  0
 17 18  1  0
 13 19  1  0
 17 19  2  0
  6 20  1  0
 20 21  2  0
 21 22  1  0
 21 23  1  0
 23 24  1  0
 24 25  1  0
 25 26  1  0
 23 27  2  0
 27 28  1  0
 28 29  1  0
 29 30  1  0
 30 31  1  0
 20 32  1  0
 28 32  2  0
  4 33  2  0
 33 34  1  0
  2 35  1  0
 34 35  2  0
 35 36  1  0
 36 37  2  0
 36 38  1  0
M  END
$$$$
