
     RDKit          3D

 53 58  0  0  0  0  0  0  0  0999 V2000
    4.9678  -29.8446   -5.9978 P   0  0  2  0  0  5  0  0  0  0  0  0
    6.2266  -29.0582   -6.1488 O   0  0  0  0  0  0  0  0  0  0  0  0
    5.2113  -31.1269   -5.0565 O   0  0  0  0  0  0  0  0  0  0  0  0
    4.4037  -30.4796   -7.3616 O   0  0  0  0  0  0  0  0  0  0  0  0
    4.1662  -29.5528   -8.4179 C   0  0  0  0  0  0  0  0  0  0  0  0
    4.1609  -30.2274   -9.7865 C   0  0  1  0  0  0  0  0  0  0  0  0
    4.1965  -29.2074  -10.8076 O   0  0  0  0  0  0  0  0  0  0  0  0
    5.3485  -31.1547  -10.0293 C   0  0  1  0  0  0  0  0  0  0  0  0
    4.8935  -32.3405  -10.7016 O   0  0  0  0  0  0  0  0  0  0  0  0
    6.2327  -30.3566  -10.9703 C   0  0  1  0  0  0  0  0  0  0  0  0
    7.0262  -31.2398  -11.7631 O   0  0  0  0  0  0  0  0  0  0  0  0
    5.1914  -29.5796  -11.7812 C   0  0  2  0  0  0  0  0  0  0  0  0
    5.7078  -28.3953  -12.4500 N   0  0  0  0  0  0  0  0  0  0  0  0
    6.8051  -27.6695  -12.0512 C   0  0  0  0  0  0  0  0  0  0  0  0
    7.0412  -26.6442  -12.8408 N   0  0  0  0  0  0  0  0  0  0  0  0
    6.1012  -26.7564  -13.8455 C   0  0  0  0  0  0  0  0  0  0  0  0
    5.8360  -25.9729  -14.9819 C   0  0  0  0  0  0  0  0  0  0  0  0
    6.5487  -24.8204  -15.2960 N   0  0  0  0  0  0  0  0  0  0  0  0
    4.8166  -26.3319  -15.7934 N   0  0  0  0  0  0  0  0  0  0  0  0
    4.1160  -27.4425  -15.4835 C   0  0  0  0  0  0  0  0  0  0  0  0
    4.2694  -28.2578  -14.4246 N   0  0  0  0  0  0  0  0  0  0  0  0
    5.2754  -27.8500  -13.6328 C   0  0  0  0  0  0  0  0  0  0  0  0
    4.1125  -32.8260    3.1512 N   0  0  0  0  0  0  0  0  0  0  0  0
    3.2535  -33.5619    3.9082 C   0  0  0  0  0  0  0  0  0  0  0  0
    2.0330  -33.4570    3.7927 O   0  0  0  0  0  0  0  0  0  0  0  0
    3.8173  -34.4433    4.7750 N   0  0  0  0  0  0  0  0  0  0  0  0
    5.1528  -34.7064    4.8450 C   0  0  0  0  0  0  0  0  0  0  0  0
    5.6063  -35.6048    5.5511 O   0  0  0  0  0  0  0  0  0  0  0  0
    6.0408  -33.8551    4.0022 C   0  0  0  0  0  0  0  0  0  0  0  0
    7.4021  -34.0583    4.0879 N   0  0  0  0  0  0  0  0  0  0  0  0
    8.2620  -33.4006    3.1907 C   0  0  0  0  0  0  0  0  0  0  0  0
    9.6352  -33.6708    3.2256 C   0  0  0  0  0  0  0  0  0  0  0  0
   10.5250  -33.0016    2.3763 C   0  0  0  0  0  0  0  0  0  0  0  0
   11.9923  -33.3243    2.4457 C   0  0  0  0  0  0  0  0  0  0  0  0
   10.0246  -32.0251    1.4970 C   0  0  0  0  0  0  0  0  0  0  0  0
   10.9395  -31.2720    0.5672 C   0  0  0  0  0  0  0  0  0  0  0  0
    8.6419  -31.7436    1.4774 C   0  0  0  0  0  0  0  0  0  0  0  0
    7.7329  -32.4046    2.3188 C   0  0  0  0  0  0  0  0  0  0  0  0
    6.3248  -32.1492    2.3442 N   0  0  0  0  0  0  0  0  0  0  0  0
    5.4859  -32.9390    3.1740 C   0  0  0  0  0  0  0  0  0  0  0  0
    5.7672  -31.0606    1.5222 C   0  0  0  0  0  0  0  0  0  0  0  0
    5.3505  -31.5945    0.1287 C   0  0  2  0  0  0  0  0  0  0  0  0
    6.5091  -31.9942   -0.6150 O   0  0  0  0  0  0  0  0  0  0  0  0
    4.5253  -30.5198   -0.6146 C   0  0  2  0  0  0  0  0  0  0  0  0
    3.8621  -29.7493    0.4073 O   0  0  0  0  0  0  0  0  0  0  0  0
    3.5059  -31.1103   -1.6232 C   0  0  2  0  0  0  0  0  0  0  0  0
    4.0694  -32.1408   -2.4392 O   0  0  0  0  0  0  0  0  0  0  0  0
    2.9315  -30.0570   -2.5822 C   0  0  0  0  0  0  0  0  0  0  0  0
    2.4065  -30.6188   -3.7816 O   0  0  0  0  0  0  0  0  0  0  0  0
    2.2995  -29.6162   -5.0364 P   0  0  1  0  0  5  0  0  0  0  0  0
    1.6411  -30.2547   -6.2149 O   0  0  0  0  0  0  0  0  0  0  0  0
    1.5213  -28.3534   -4.4383 O   0  0  0  0  0  0  0  0  0  0  0  0
    3.7662  -29.0914   -5.3060 O   0  0  0  0  0  0  0  0  0  0  0  0
  1  2  2  0
  1  3  1  1
  1  4  1  0
  4  5  1  0
  6  5  1  1
  6  7  1  0
  6  8  1  0
  8  9  1  6
  8 10  1  0
 10 11  1  6
  7 12  1  0
 10 12  1  0
 12 13  1  1
 13 14  4  0
 14 15  4  0
 15 16  4  0
 16 17  4  0
 17 18  1  0
 17 19  4  0
 19 20  4  0
 20 21  4  0
 13 22  4  0
 16 22  4  0
 21 22  4  0
 23 24  4  0
 24 25  2  0
 24 26  4  0
 26 27  4  0
 27 28  2  0
 27 29  4  0
 29 30  1  0
 30 31  1  0
 31 32  4  0
 32 33  4  0
 33 34  1  0
 33 35  4  0
 35 36  1  0
 35 37  4  0
 31 38  4  0
 37 38  4  0
 38 39  1  0
 23 40  4  0
 29 40  4  0
 39 40  1  0
 39 41  1  0
 41 42  1  0
 42 43  1  6
 42 44  1  0
 44 45  1  1
 44 46  1  0
 46 47  1  6
 46 48  1  0
 48 49  1  0
 50 49  1  0
 50 51  2  0
 50 52  1  1
  1 53  1  0
 50 53  1  0
M  END
