8A2D_KXY_A_1103
     RDKit          3D

 86 93  0  0  0  0  0  0  0  0999 V2000
  -14.0573  -10.5746   27.3640 C   0  0  1  0  0  0  0  0  0  0  0  0
  -14.8281  -11.2591   28.4782 C   0  0  0  0  0  0  0  0  0  0  0  0
  -11.9940  -14.6174   25.7442 C   0  0  1  0  0  0  0  0  0  0  0  0
  -12.6937  -11.1883   27.1514 C   0  0  0  0  0  0  0  0  0  0  0  0
  -12.3910  -12.4564   26.6853 C   0  0  0  0  0  0  0  0  0  0  0  0
  -13.1374  -13.6325   26.1399 C   0  0  2  0  0  0  0  0  0  0  0  0
   -9.3581  -14.4235   26.3725 C   0  0  1  0  0  0  0  0  0  0  0  0
  -16.8531  -12.1333   23.6943 C   0  0  0  0  0  0  0  0  0  0  0  0
  -16.0815  -11.1214   28.5242 O   0  0  0  0  0  0  0  0  0  0  0  0
  -17.6167  -13.2694   24.3228 C   0  0  2  0  0  0  0  0  0  0  0  0
  -14.7952  -12.4255   30.7222 C   0  0  0  0  0  0  0  0  0  0  0  0
  -17.3240  -21.1031   16.2153 C   0  0  2  0  0  0  0  0  0  0  0  0
  -16.2277  -12.4213   32.4499 C   0  0  0  0  0  0  0  0  0  0  0  0
  -16.0267  -11.3311   24.4896 C   0  0  0  0  0  0  0  0  0  0  0  0
  -15.2820  -10.3075   23.9666 C   0  0  0  0  0  0  0  0  0  0  0  0
  -14.5083   -9.8459   25.0122 C   0  0  0  0  0  0  0  0  0  0  0  0
  -15.3024   -9.9894   22.6076 C   0  0  0  0  0  0  0  0  0  0  0  0
  -18.6103  -14.6366   19.8606 C   0  0  0  0  0  0  0  0  0  0  0  0
  -19.0355  -15.8245   20.4687 C   0  0  0  0  0  0  0  0  0  0  0  0
  -19.4849  -16.8932   19.6890 C   0  0  0  0  0  0  0  0  0  0  0  0
  -10.7112  -13.8288   26.0558 C   0  0  2  0  0  0  0  0  0  0  0  0
  -11.0906  -12.5750   26.6413 N   0  0  0  0  0  0  0  0  0  0  0  0
  -10.5549  -11.4215   27.0704 C   0  0  0  0  0  0  0  0  0  0  0  0
  -11.5283  -10.5367   27.4067 N   0  0  0  0  0  0  0  0  0  0  0  0
   -9.6161  -13.7581   25.0143 C   0  0  2  0  0  0  0  0  0  0  0  0
  -14.8070  -10.5931   26.1027 N   0  0  0  0  0  0  0  0  0  0  0  0
  -16.8569  -11.8756   22.2959 C   0  0  0  0  0  0  0  0  0  0  0  0
  -16.1052  -10.7957   21.7701 C   0  0  0  0  0  0  0  0  0  0  0  0
  -14.4424   -8.8920   22.0417 C   0  0  2  0  0  0  0  0  0  0  0  0
  -13.1020   -9.2218   22.1768 F   0  0  0  0  0  0  0  0  0  0  0  0
  -14.6965   -7.7109   22.7176 F   0  0  0  0  0  0  0  0  0  0  0  0
  -17.5181  -12.7768   21.3838 C   0  0  0  0  0  0  0  0  0  0  0  0
  -18.0397  -13.5926   20.6683 C   0  0  0  0  0  0  0  0  0  0  0  0
  -19.5075  -16.7895   18.2902 C   0  0  0  0  0  0  0  0  0  0  0  0
  -19.1046  -15.5841   17.6818 C   0  0  0  0  0  0  0  0  0  0  0  0
  -18.6585  -14.5126   18.4657 C   0  0  0  0  0  0  0  0  0  0  0  0
  -19.9239  -17.9741   17.4483 C   0  0  2  0  0  0  0  0  0  0  0  0
  -15.7242  -11.5079   25.7904 N   0  0  0  0  0  0  0  0  0  0  0  0
  -14.1477  -11.9811   29.5230 N   0  0  0  0  0  0  0  0  0  0  0  0
  -14.3933  -13.8342   31.5426 S   0  0  0  0  0  0  0  0  0  0  0  0
  -15.5564  -13.6033   32.7359 C   0  0  0  0  0  0  0  0  0  0  0  0
  -15.8048  -11.7689   31.3316 N   0  0  0  0  0  0  0  0  0  0  0  0
  -17.6633  -18.9586   17.5260 C   0  0  1  0  0  0  0  0  0  0  0  0
  -17.5500  -20.4853   17.6139 C   0  0  2  0  0  0  0  0  0  0  0  0
  -18.0981  -20.3334   15.1175 C   0  0  2  0  0  0  0  0  0  0  0  0
  -19.2624  -19.5284   15.7047 C   0  0  2  0  0  0  0  0  0  0  0  0
  -18.7889  -18.5034   16.6661 N   0  0  0  0  0  0  0  0  0  0  0  0
  -17.6931  -22.6010   16.2316 C   0  0  2  0  0  0  0  0  0  0  0  0
  -16.5560  -23.3922   16.0000 O   0  0  0  0  0  0  0  0  0  0  0  0
  -13.9151   -9.5134   27.6759 H   0  0  0  0  0  0  0  0  0  0  0  0
  -12.0482  -15.5354   26.3655 H   0  0  0  0  0  0  0  0  0  0  0  0
  -12.0602  -14.8793   24.6633 H   0  0  0  0  0  0  0  0  0  0  0  0
  -13.8026  -14.0697   26.9161 H   0  0  0  0  0  0  0  0  0  0  0  0
  -13.7166  -13.3341   25.2426 H   0  0  0  0  0  0  0  0  0  0  0  0
   -8.7240  -13.8238   27.0563 H   0  0  0  0  0  0  0  0  0  0  0  0
   -9.3236  -15.5337   26.3481 H   0  0  0  0  0  0  0  0  0  0  0  0
  -17.0904  -13.6388   25.2242 H   0  0  0  0  0  0  0  0  0  0  0  0
  -17.7722  -14.1023   23.6122 H   0  0  0  0  0  0  0  0  0  0  0  0
  -18.6287  -12.9118   24.6127 H   0  0  0  0  0  0  0  0  0  0  0  0
  -16.2336  -21.0294   15.9850 H   0  0  0  0  0  0  0  0  0  0  0  0
  -17.0229  -12.0332   33.0695 H   0  0  0  0  0  0  0  0  0  0  0  0
  -13.7327   -9.0900   24.9745 H   0  0  0  0  0  0  0  0  0  0  0  0
  -18.9986  -15.9356   21.5445 H   0  0  0  0  0  0  0  0  0  0  0  0
  -19.7900  -17.8120   20.1739 H   0  0  0  0  0  0  0  0  0  0  0  0
   -9.4943  -11.2227   27.1354 H   0  0  0  0  0  0  0  0  0  0  0  0
   -9.6898  -14.4880   24.1798 H   0  0  0  0  0  0  0  0  0  0  0  0
   -9.1151  -12.7726   24.9019 H   0  0  0  0  0  0  0  0  0  0  0  0
  -16.1114  -10.6125   20.7015 H   0  0  0  0  0  0  0  0  0  0  0  0
  -14.6584   -8.7306   20.9634 H   0  0  0  0  0  0  0  0  0  0  0  0
  -19.1170  -15.4873   16.6018 H   0  0  0  0  0  0  0  0  0  0  0  0
  -18.3318  -13.5964   17.9809 H   0  0  0  0  0  0  0  0  0  0  0  0
  -20.7258  -17.6319   16.7613 H   0  0  0  0  0  0  0  0  0  0  0  0
  -20.3641  -18.7843   18.0759 H   0  0  0  0  0  0  0  0  0  0  0  0
  -13.1318  -12.1915   29.4328 H   0  0  0  0  0  0  0  0  0  0  0  0
  -15.7501  -14.2622   33.5757 H   0  0  0  0  0  0  0  0  0  0  0  0
  -17.7323  -18.5599   18.5610 H   0  0  0  0  0  0  0  0  0  0  0  0
  -16.7129  -18.5620   17.1039 H   0  0  0  0  0  0  0  0  0  0  0  0
  -16.6924  -20.7499   18.2784 H   0  0  0  0  0  0  0  0  0  0  0  0
  -18.4789  -20.8871   18.0809 H   0  0  0  0  0  0  0  0  0  0  0  0
  -18.4816  -21.0188   14.3323 H   0  0  0  0  0  0  0  0  0  0  0  0
  -17.4037  -19.6300   14.6088 H   0  0  0  0  0  0  0  0  0  0  0  0
  -19.9764  -20.2344   16.1881 H   0  0  0  0  0  0  0  0  0  0  0  0
  -19.7953  -19.0260   14.8695 H   0  0  0  0  0  0  0  0  0  0  0  0
  -18.4503  -22.8174   15.4511 H   0  0  0  0  0  0  0  0  0  0  0  0
  -18.1453  -22.8693   17.2181 H   0  0  0  0  0  0  0  0  0  0  0  0
  -16.8377  -24.3377   16.0997 H   0  0  0  0  0  0  0  0  0  0  0  0
  1  2  1  0
  1  4  1  0
  4  5  2  0
  5  6  1  0
  3  6  1  0
  2  9  2  0
  8 10  1  0
  8 14  1  0
 14 15  1  0
 15 16  2  0
 15 17  1  0
 18 19  2  0
 19 20  1  0
  7 21  1  0
  3 21  1  0
  5 22  1  0
 21 22  1  1
 22 23  1  0
 23 24  2  0
  4 24  1  0
  7 25  1  0
 21 25  1  0
  1 26  1  0
 16 26  1  0
  8 27  2  0
 27 28  1  0
 17 28  2  0
 17 29  1  0
 29 30  1  0
 29 31  1  0
 27 32  1  0
 18 33  1  0
 32 33  3  0
 20 34  2  0
 34 35  1  0
 35 36  2  0
 18 36  1  0
 34 37  1  0
 14 38  2  0
 26 38  1  0
  2 39  1  0
 11 39  1  0
 11 40  1  0
 13 41  2  0
 40 41  1  0
 11 42  2  0
 13 42  1  0
 12 44  1  0
 43 44  1  0
 12 45  1  0
 45 46  1  0
 43 47  1  0
 46 47  1  0
 37 47  1  0
 12 48  1  0
 48 49  1  0
  1 50  1  1
  3 51  1  1
  3 52  1  0
  6 53  1  1
  6 54  1  0
  7 55  1  1
  7 56  1  0
 10 57  1  1
 10 58  1  0
 10 59  1  0
 12 60  1  6
 13 61  1  0
 16 62  1  0
 19 63  1  0
 20 64  1  0
 23 65  1  0
 25 66  1  6
 25 67  1  0
 28 68  1  0
 29 69  1  6
 35 70  1  0
 36 71  1  0
 37 72  1  6
 37 73  1  0
 39 74  1  0
 41 75  1  0
 43 76  1  1
 43 77  1  0
 44 78  1  1
 44 79  1  0
 45 80  1  6
 45 81  1  0
 46 82  1  1
 46 83  1  0
 48 84  1  6
 48 85  1  0
 49 86  1  0
M  END
