7R59_I5F_A_602
     RDKit          3D

 13 15  0  0  0  0  0  0  0  0999 V2000
    1.5260    4.3844   10.8793 C   0  0  0  0  0  0  0  0  0  0  0  0
    2.7646    3.8371   11.0194 C   0  0  0  0  0  0  0  0  0  0  0  0
    3.5461    3.9214   12.1631 C   0  0  0  0  0  0  0  0  0  0  0  0
    1.5138    3.5335    8.7750 C   0  0  0  0  0  0  0  0  0  0  0  0
   -0.2997    4.5637    9.1317 C   0  0  0  0  0  0  0  0  0  0  0  0
    0.7692    3.4422    7.6584 N   0  0  0  0  0  0  0  0  0  0  0  0
   -0.3768    4.0984    7.8966 N   0  0  0  0  0  0  0  0  0  0  0  0
    1.0671    5.0763   12.0285 C   0  0  0  0  0  0  0  0  0  0  0  0
    0.8892    4.2308    9.7389 N   0  0  0  0  0  0  0  0  0  0  0  0
    3.8680    4.6794   14.4102 O   0  0  0  0  0  0  0  0  0  0  0  0
    3.0843    4.6035   13.2846 C   0  0  0  0  0  0  0  0  0  0  0  0
    1.8321    5.1645   13.1618 C   0  0  0  0  0  0  0  0  0  0  0  0
    3.1341    3.0355    9.4936 S   0  0  0  0  0  0  0  0  0  0  0  0
  1  2  1  0
  2  3  2  0
  4  6  2  0
  5  7  2  0
  6  7  1  0
  1  8  2  0
  5  9  1  0
  4  9  1  0
  1  9  1  0
  3 11  1  0
 10 11  1  0
  8 12  1  0
 11 12  2  0
  4 13  1  0
  2 13  1  0
M  END
$$$$
