7NA4_1I9_A_201
     RDKit          3D

 38 43  0  0  0  0  0  0  0  0999 V2000
   -3.3657    8.0229    0.2937 C   0  0  0  0  0  0  0  0  0  0  0  0
   -4.2399    9.0874    0.9596 C   0  0  1  0  0  0  0  0  0  0  0  0
   -3.7910   10.4027    0.4384 C   0  0  0  0  0  0  0  0  0  0  0  0
   -4.7598   11.5352    0.5643 C   0  0  0  0  0  0  0  0  0  0  0  0
   -6.1199   11.0108    0.0169 C   0  0  1  0  0  0  0  0  0  0  0  0
   -6.5498    9.9553    0.9435 C   0  0  0  0  0  0  0  0  0  0  0  0
   -5.6680    8.7157    0.6173 C   0  0  0  0  0  0  0  0  0  0  0  0
   -6.9931   12.1113   -0.3895 C   0  0  1  0  0  0  0  0  0  0  0  0
   -8.5926   11.4008   -2.1225 C   0  0  0  0  0  0  0  0  0  0  0  0
   -9.8504   10.2734   -4.3687 C   0  0  0  0  0  0  0  0  0  0  0  0
  -10.6066   10.7970   -3.3515 C   0  0  0  0  0  0  0  0  0  0  0  0
   -9.9676   11.3419   -2.2637 C   0  0  0  0  0  0  0  0  0  0  0  0
   -9.4366   12.2580   -0.3116 C   0  0  0  0  0  0  0  0  0  0  0  0
  -10.2501   11.0797    2.3959 C   0  0  0  0  0  0  0  0  0  0  0  0
  -11.3820   10.4307    3.2024 C   0  0  0  0  0  0  0  0  0  0  0  0
   -9.7326   15.4862    0.9570 C   0  0  0  0  0  0  0  0  0  0  0  0
  -10.8377    8.5745   -7.3562 C   0  0  0  0  0  0  0  0  0  0  0  0
   -6.4402   10.7888   -3.2510 C   0  0  0  0  0  0  0  0  0  0  0  0
   -5.6336   11.9235   -3.4336 C   0  0  0  0  0  0  0  0  0  0  0  0
   -4.2567   11.8412   -3.4116 C   0  0  0  0  0  0  0  0  0  0  0  0
   -3.6554   10.6171   -3.2058 C   0  0  0  0  0  0  0  0  0  0  0  0
   -5.7346    9.5905   -3.0476 C   0  0  0  0  0  0  0  0  0  0  0  0
   -6.0944   13.1184   -1.1644 C   0  0  0  0  0  0  0  0  0  0  0  0
   -8.2808   11.9678   -0.9085 N   0  0  0  0  0  0  0  0  0  0  0  0
   -7.8833   10.8641   -3.1716 C   0  0  0  0  0  0  0  0  0  0  0  0
   -8.5265   10.3174   -4.2581 N   0  0  0  0  0  0  0  0  0  0  0  0
  -10.4729   11.8650   -1.1627 N   0  0  0  0  0  0  0  0  0  0  0  0
   -9.8320   12.8635    0.9660 C   0  0  2  0  0  0  0  0  0  0  0  0
  -10.8232   12.0088    1.5758 O   0  0  0  0  0  0  0  0  0  0  0  0
  -10.5063   14.1848    0.9638 C   0  0  2  0  0  0  0  0  0  0  0  0
  -10.4047   15.0588   -0.2620 C   0  0  0  0  0  0  0  0  0  0  0  0
  -10.4966    9.6836   -5.5414 C   0  0  0  0  0  0  0  0  0  0  0  0
   -9.8988    8.8985   -6.4509 N   0  0  0  0  0  0  0  0  0  0  0  0
  -10.6397    7.8509   -8.3521 O   0  0  0  0  0  0  0  0  0  0  0  0
  -11.9592    9.1491   -6.9963 O   0  0  0  0  0  0  0  0  0  0  0  0
  -11.7758    9.8262   -5.8995 N   0  0  0  0  0  0  0  0  0  0  0  0
   -3.2853   13.2618   -3.6404 Cl  0  0  0  0  0  0  0  0  0  0  0  0
   -4.4133    9.5223   -3.0289 N   0  0  0  0  0  0  0  0  0  0  0  0
  2  1  1  6
  3  2  1  1
  4  3  1  6
  5  4  1  0
  6  5  1  6
  7  6  1  6
  2  7  1  0
  5  8  1  1
 10 11  2  0
 11 12  1  0
  9 12  2  0
 15 14  1  6
 18 19  2  0
 19 20  1  0
 20 21  2  0
 18 22  1  0
 23  8  1  1
  9 24  1  0
 13 24  1  0
  8 24  1  6
 18 25  1  0
  9 25  1  0
 10 26  1  0
 25 26  2  0
 12 27  1  0
 13 27  2  0
 13 28  1  0
 28 29  1  6
 14 29  1  1
 16 30  1  6
 30 28  1  6
 31 16  1  1
 30 31  1  0
 10 32  1  0
 17 33  1  0
 32 33  1  0
 17 34  2  0
 17 35  1  0
 35 36  1  0
 32 36  2  0
 20 37  1  0
 21 38  1  0
 22 38  2  0
M  END
$$$$
