7L00_XCJ_A_402
     RDKit          3D

 41 44  0  0  0  0  0  0  0  0999 V2000
   -5.6156   -7.4134    1.3228 C   0  0  0  0  0  0  0  0  0  0  0  0
   -6.8654   -4.9614    0.4513 C   0  0  0  0  0  0  0  0  0  0  0  0
   -6.8179   -4.1911    1.6283 C   0  0  0  0  0  0  0  0  0  0  0  0
   -7.8409   -3.2756    1.8578 C   0  0  0  0  0  0  0  0  0  0  0  0
   -8.8883   -3.1020    0.9681 C   0  0  0  0  0  0  0  0  0  0  0  0
   -8.9469   -3.8530   -0.2060 C   0  0  0  0  0  0  0  0  0  0  0  0
   -7.9270   -4.7847   -0.4644 C   0  0  0  0  0  0  0  0  0  0  0  0
   -9.4842   -1.6006    2.5162 C   0  0  0  0  0  0  0  0  0  0  0  0
  -10.6435    0.6727    2.5197 C   0  0  0  0  0  0  0  0  0  0  0  0
  -10.0278    1.0641    1.2118 C   0  0  0  0  0  0  0  0  0  0  0  0
   -8.8461    0.1924    0.9237 C   0  0  0  0  0  0  0  0  0  0  0  0
   -7.5316    0.6543    0.9667 C   0  0  0  0  0  0  0  0  0  0  0  0
   -7.7884   -1.7358    0.4796 C   0  0  0  0  0  0  0  0  0  0  0  0
   -8.5984   -3.9381   -0.3190 C   0  0  0  0  0  0  0  0  0  0  0  0
   -8.0995   -5.2168   -0.4628 C   0  0  0  0  0  0  0  0  0  0  0  0
   -6.7903   -5.1818   -0.0226 C   0  0  0  0  0  0  0  0  0  0  0  0
   -6.5410   -3.8830    0.3723 C   0  0  0  0  0  0  0  0  0  0  0  0
   -9.8079   -2.1710    1.3294 N   0  0  0  0  0  0  0  0  0  0  0  0
  -10.3031   -0.5879    3.1209 N   0  0  0  0  0  0  0  0  0  0  0  0
   -7.6453   -3.1324    0.1891 N   0  0  0  0  0  4  0  0  0  0  0  0
   -8.9849   -1.1361    0.6628 N   0  0  0  0  0  0  0  0  0  0  0  0
  -11.4832    1.4434    3.0570 O   0  0  0  0  0  0  0  0  0  0  0  0
   -4.2511   -5.4273    0.1391 O   0  0  0  0  0  0  0  0  0  0  0  0
   -5.7884   -6.7084   -1.2622 O   0  0  0  0  0  0  0  0  0  0  0  0
   -5.5853   -6.1182    0.1051 S   0  0  1  0  0  6  0  0  0  0  0  0
   -8.0450   -2.2361    3.1584 S   0  0  0  0  0  0  0  0  0  0  0  0
   -6.5148   -0.6471    0.6479 S   0  0  0  0  0  0  0  0  0  0  0  0
   -5.4554   -6.9781    2.3308 H   0  0  0  0  0  0  0  0  0  0  0  0
   -6.5996   -7.9251    1.2952 H   0  0  0  0  0  0  0  0  0  0  0  0
   -4.8120   -8.1469    1.1058 H   0  0  0  0  0  0  0  0  0  0  0  0
   -6.0086   -4.2994    2.3391 H   0  0  0  0  0  0  0  0  0  0  0  0
   -9.7600   -3.7199   -0.9082 H   0  0  0  0  0  0  0  0  0  0  0  0
   -7.9618   -5.3652   -1.3775 H   0  0  0  0  0  0  0  0  0  0  0  0
   -9.7177    2.1309    1.2457 H   0  0  0  0  0  0  0  0  0  0  0  0
  -10.7745    0.9592    0.3949 H   0  0  0  0  0  0  0  0  0  0  0  0
   -7.2185    1.6688    1.1755 H   0  0  0  0  0  0  0  0  0  0  0  0
   -9.6020   -3.6213   -0.5730 H   0  0  0  0  0  0  0  0  0  0  0  0
   -8.6303   -6.0786   -0.8448 H   0  0  0  0  0  0  0  0  0  0  0  0
   -6.0960   -6.0107    0.0068 H   0  0  0  0  0  0  0  0  0  0  0  0
   -5.6035   -3.5167    0.7704 H   0  0  0  0  0  0  0  0  0  0  0  0
  -10.6755   -0.7877    4.0765 H   0  0  0  0  0  0  0  0  0  0  0  0
  2  3  4  0
  3  4  4  0
  4  5  4  0
  5  6  4  0
  2  7  4  0
  6  7  4  0
  9 10  1  0
 10 11  1  0
 11 12  4  0
 14 15  4  0
 15 16  4  0
 16 17  4  0
  8 18  4  0
  5 18  4  0
  9 19  1  0
  8 19  1  0
 14 20  4  0
 17 20  4  0
 13 20  1  0
 13 21  4  0
 11 21  4  0
  9 22  2  0
 25  1  1  6
  2 25  1  0
 23 25  2  0
 24 25  2  0
  8 26  4  0
  4 26  4  0
 13 27  4  0
 12 27  4  0
  1 28  1  0
  1 29  1  0
  1 30  1  0
  3 31  1  0
  6 32  1  0
  7 33  1  0
 10 34  1  0
 10 35  1  0
 12 36  1  0
 14 37  1  0
 15 38  1  0
 16 39  1  0
 17 40  1  0
 19 41  1  0
M  CHG  1  20   1
M  END
