7UJ5_DGL_D_301
     RDKit          3D

 19 18  0  0  0  0  0  0  0  0999 V2000
  -19.3656    1.8033  -23.0204 N   0  0  0  0  0  0  0  0  0  0  0  0
  -19.2402    2.6190  -21.8106 C   0  0  1  0  0  0  0  0  0  0  0  0
  -19.4622    4.0652  -22.1568 C   0  0  0  0  0  0  0  0  0  0  0  0
  -20.5825    4.4530  -22.5861 O   0  0  0  0  0  0  0  0  0  0  0  0
  -20.2226    2.1419  -20.7185 C   0  0  1  0  0  0  0  0  0  0  0  0
  -20.3096    3.1298  -19.5473 C   0  0  1  0  0  0  0  0  0  0  0  0
  -21.5288    2.8583  -18.7242 C   0  0  0  0  0  0  0  0  0  0  0  0
  -21.5932    1.8196  -18.0136 O   0  0  0  0  0  0  0  0  0  0  0  0
  -22.6099    3.7324  -18.7785 O   0  0  0  0  0  0  0  0  0  0  0  0
  -18.4299    4.9828  -21.9881 O   0  0  0  0  0  0  0  0  0  0  0  0
  -18.7081    2.1603  -23.7525 H   0  0  0  0  0  0  0  0  0  0  0  0
  -20.3358    1.9102  -23.3970 H   0  0  0  0  0  0  0  0  0  0  0  0
  -18.2011    2.5072  -21.4271 H   0  0  0  0  0  0  0  0  0  0  0  0
  -21.2340    1.9932  -21.1584 H   0  0  0  0  0  0  0  0  0  0  0  0
  -19.8744    1.1598  -20.3284 H   0  0  0  0  0  0  0  0  0  0  0  0
  -19.4046    3.0394  -18.9076 H   0  0  0  0  0  0  0  0  0  0  0  0
  -20.3613    4.1718  -19.9291 H   0  0  0  0  0  0  0  0  0  0  0  0
  -22.5290    4.6807  -18.4316 H   0  0  0  0  0  0  0  0  0  0  0  0
  -17.4908    4.6734  -21.7679 H   0  0  0  0  0  0  0  0  0  0  0  0
  2  1  1  0
  2  3  1  0
  3  4  2  0
  2  5  1  0
  5  6  1  0
  6  7  1  0
  7  8  2  0
  7  9  1  0
  3 10  1  0
  1 11  1  0
  1 12  1  0
  2 13  1  1
  5 14  1  6
  5 15  1  0
  6 16  1  1
  6 17  1  0
  9 18  1  0
 10 19  1  0
M  END
