7NUT_GLP_B_501
     RDKit          3D

 16 16  0  0  0  0  0  0  0  0999 V2000
    3.1660   -2.5533  -38.1233 C   0  0  1  0  0  0  0  0  0  0  0  0
    4.4679   -1.8064  -38.2045 C   0  0  1  0  0  0  0  0  0  0  0  0
    5.2540   -1.8414  -36.9301 C   0  0  2  0  0  0  0  0  0  0  0  0
    4.4150   -1.9597  -35.6933 C   0  0  1  0  0  0  0  0  0  0  0  0
    3.2155   -2.8235  -35.8367 C   0  0  1  0  0  0  0  0  0  0  0  0
    1.9450   -2.0412  -35.5064 C   0  0  0  0  0  0  0  0  0  0  0  0
    2.9164   -3.2928  -39.2994 O   0  0  0  0  0  0  0  0  0  0  0  0
    5.3200   -2.3339  -39.2633 N   0  0  0  0  0  0  0  0  0  0  0  0
    5.9750   -0.6480  -36.8353 O   0  0  0  0  0  0  0  0  0  0  0  0
    5.2882   -2.3954  -34.6849 O   0  0  0  0  0  0  0  0  0  0  0  0
    3.1134   -3.4400  -37.0773 O   0  0  0  0  0  0  0  0  0  0  0  0
    0.8270   -2.8610  -35.5337 O   0  0  0  0  0  0  0  0  0  0  0  0
    0.1955   -3.0999  -33.9869 P   0  0  1  0  0  5  0  0  0  0  0  0
    0.8724   -2.2120  -32.9580 O   0  0  0  0  0  0  0  0  0  0  0  0
   -1.4715   -2.7389  -33.9467 O   0  0  0  0  0  0  0  0  0  0  0  0
    0.3655   -4.7420  -33.5842 O   0  0  0  0  0  0  0  0  0  0  0  0
  1  2  1  0
  2  3  1  0
  3  4  1  0
  4  5  1  0
  5  6  1  0
  1  7  1  6
  2  8  1  6
  3  9  1  1
  4 10  1  1
  1 11  1  0
  5 11  1  6
  6 12  1  1
 12 13  1  0
 13 14  2  0
 13 15  1  6
 13 16  1  0
M  END
$$$$
