8DKO_TFB_B_2002
     RDKit          3D

  8  8  0  0  0  0  0  0  0  0999 V2000
   26.2484    9.8385   21.0460 O   0  0  0  0  0  0  0  0  0  0  0  0
   24.9178    9.4939   21.2647 C   0  0  2  0  0  0  0  0  0  0  0  0
   24.8199    8.1511   21.9007 C   0  0  0  0  0  0  0  0  0  0  0  0
   25.8960    7.6666   22.6069 O   0  0  0  0  0  0  0  0  0  0  0  0
   24.2498    9.5144   19.9113 C   0  0  0  0  0  0  0  0  0  0  0  0
   25.3967    9.2950   18.9511 C   0  0  0  0  0  0  0  0  0  0  0  0
   26.6295    9.3593   19.8121 C   0  0  0  0  0  0  0  0  0  0  0  0
   23.7617    7.4857   21.7829 O   0  0  0  0  0  0  0  0  0  0  0  0
  1  2  1  0
  2  3  1  6
  3  4  1  0
  5  2  1  6
  5  6  1  0
  7  1  1  1
  6  7  1  1
  3  8  2  0
M  END
$$$$
