1HP0_AD3_A_1315
     RDKit          3D

 19 21  0  0  0  0  0  0  0  0999 V2000
   15.6700   23.5980   10.0340 O   0  0  0  0  0  0  0  0  0  0  0  0
   16.2980   24.8650    9.8470 C   0  0  0  0  0  0  0  0  0  0  0  0
   15.4040   26.0780   10.2040 C   0  0  1  0  0  0  0  0  0  0  0  0
   15.2460   25.8080   11.6320 O   0  0  0  0  0  0  0  0  0  0  0  0
   16.5030   27.1360   10.0180 C   0  0  1  0  0  0  0  0  0  0  0  0
   15.9340   28.1520    9.1910 O   0  0  0  0  0  0  0  0  0  0  0  0
   16.9130   27.5680   11.4550 C   0  0  1  0  0  0  0  0  0  0  0  0
   16.8170   28.9510   11.8080 O   0  0  0  0  0  0  0  0  0  0  0  0
   16.0220   26.7420   12.3880 C   0  0  2  0  0  0  0  0  0  0  0  0
   16.6310   26.2200   13.6550 N   0  0  0  0  0  0  0  0  0  0  0  0
   17.2020   26.9880   14.7000 C   0  0  0  0  0  0  0  0  0  0  0  0
   17.6920   26.2980   15.7120 N   0  0  0  0  0  0  0  0  0  0  0  0
   17.4420   24.9680   15.3340 C   0  0  0  0  0  0  0  0  0  0  0  0
   17.7230   23.6890   15.9660 C   0  0  0  0  0  0  0  0  0  0  0  0
   18.3310   23.5710   17.1430 N   0  0  0  0  0  0  0  0  0  0  0  0
   17.3320   22.5450   15.2950 N   0  0  0  0  0  0  0  0  0  0  0  0
   16.7060   22.6260   14.0880 C   0  0  0  0  0  0  0  0  0  0  0  0
   16.3840   23.7440   13.3880 C   0  0  0  0  0  0  0  0  0  0  0  0
   16.7870   24.9050   14.0730 C   0  0  0  0  0  0  0  0  0  0  0  0
  1  2  1  0
  3  2  1  6
  3  4  1  0
  3  5  1  0
  5  6  1  6
  5  7  1  0
  7  8  1  6
  4  9  1  0
  7  9  1  0
  9 10  1  1
 10 11  1  0
 11 12  2  0
 12 13  1  0
 13 14  1  0
 14 15  1  0
 14 16  2  0
 16 17  1  0
 17 18  2  0
 10 19  1  0
 13 19  2  0
 18 19  1  0
M  END
$$$$
