@<TRIPOS>MOLECULE
1HP0_AD3_A_1315
 33 35 0 0 0
SMALL
GASTEIGER

@<TRIPOS>ATOM
      1 O5*        15.6700   23.5980   10.0340 O.3     1  UNL1       -0.3924
      2 C5*        16.2980   24.8650    9.8470 C.3     1  UNL1        0.0730
      3 C4*        15.4040   26.0780   10.2040 C.3     1  UNL1        0.1126
      4 O4*        15.2460   25.8080   11.6320 O.3     1  UNL1       -0.3457
      5 C3*        16.5030   27.1360   10.0180 C.3     1  UNL1        0.1135
      6 O3*        15.9340   28.1520    9.1910 O.3     1  UNL1       -0.3864
      7 C2*        16.9130   27.5680   11.4550 C.3     1  UNL1        0.1285
      8 O2*        16.8170   28.9510   11.8080 O.3     1  UNL1       -0.3847
      9 C1*        16.0220   26.7420   12.3880 C.3     1  UNL1        0.1655
     10 N          16.6310   26.2200   13.6550 N.ar    1  UNL1       -0.3008
     11 C          17.2020   26.9880   14.7000 C.ar    1  UNL1        0.0992
     12 N          17.6920   26.2980   15.7120 N.ar    1  UNL1       -0.2322
     13 C          17.4420   24.9680   15.3340 C.ar    1  UNL1        0.1284
     14 C          17.7230   23.6890   15.9660 C.ar    1  UNL1        0.1438
     15 N          18.3310   23.5710   17.1430 N.pl3   1  UNL1       -0.3414
     16 N          17.3320   22.5450   15.2950 N.ar    1  UNL1       -0.2384
     17 C          16.7060   22.6260   14.0880 C.ar    1  UNL1        0.0318
     18 C          16.3840   23.7440   13.3880 C.ar    1  UNL1       -0.0177
     19 C          16.7870   24.9050   14.0730 C.ar    1  UNL1        0.0756
     20 H5*        16.2886   22.8915    9.7910 H       1  UNL1        0.2095
     21 H5*1       16.5827   24.9495    8.8190 H       1  UNL1        0.0584
     22 H5*2       17.1344   24.8939   10.5137 H       1  UNL1        0.0584
     23 H4*        14.4777   26.2966    9.7150 H       1  UNL1        0.0647
     24 H3*        17.3992   26.8190    9.5268 H       1  UNL1        0.0647
     25 H3*        15.1133   28.4754    9.5945 H       1  UNL1        0.2100
     26 H2*        17.9660   27.3951   11.5335 H       1  UNL1        0.0665
     27 H2*        15.8887   29.2302   11.7722 H       1  UNL1        0.2101
     28 H1*        15.3463   27.4428   12.8321 H       1  UNL1        0.0866
     29 H          17.2325   28.0191   14.6713 H       1  UNL1        0.1030
     30 H          18.6154   24.3761   17.6330 H       1  UNL1        0.1438
     31 H          18.4966   22.6785   17.5242 H       1  UNL1        0.1438
     32 H          16.4445   21.7278   13.6523 H       1  UNL1        0.0831
     33 H          15.9062   23.7424   12.4733 H       1  UNL1        0.0654
@<TRIPOS>BOND
     1     1     2    1
     2     3     2    1
     3     3     4    1
     4     3     5    1
     5     5     6    1
     6     5     7    1
     7     7     8    1
     8     4     9    1
     9     7     9    1
    10     9    10    1
    11    10    11   ar
    12    11    12   ar
    13    12    13   ar
    14    13    14   ar
    15    14    15    1
    16    14    16   ar
    17    16    17   ar
    18    17    18   ar
    19    10    19   ar
    20    13    19   ar
    21    18    19   ar
    22     1    20    1
    23     2    21    1
    24     2    22    1
    25     3    23    1
    26     5    24    1
    27     6    25    1
    28     7    26    1
    29     8    27    1
    30     9    28    1
    31    11    29    1
    32    15    30    1
    33    15    31    1
    34    17    32    1
    35    18    33    1
