1HP0_AD3_B_1316
     RDKit          3D

 19 21  0  0  0  0  0  0  0  0999 V2000
   22.6420   27.9800   42.6160 O   0  0  0  0  0  0  0  0  0  0  0  0
   23.7540   28.7700   42.1670 C   0  0  0  0  0  0  0  0  0  0  0  0
   24.9990   27.9860   41.7010 C   0  0  1  0  0  0  0  0  0  0  0  0
   24.3020   27.4900   40.5330 O   0  0  0  0  0  0  0  0  0  0  0  0
   25.8870   29.0990   41.1310 C   0  0  1  0  0  0  0  0  0  0  0  0
   27.2410   28.9430   41.5700 O   0  0  0  0  0  0  0  0  0  0  0  0
   25.7740   29.0450   39.5910 C   0  0  1  0  0  0  0  0  0  0  0  0
   26.9730   29.0460   38.8260 O   0  0  0  0  0  0  0  0  0  0  0  0
   24.8720   27.8160   39.2880 C   0  0  2  0  0  0  0  0  0  0  0  0
   23.7890   27.8700   38.2410 N   0  0  0  0  0  0  0  0  0  0  0  0
   23.9730   28.1930   36.8810 C   0  0  0  0  0  0  0  0  0  0  0  0
   22.8710   28.1860   36.1500 N   0  0  0  0  0  0  0  0  0  0  0  0
   21.8540   27.8370   37.0710 C   0  0  0  0  0  0  0  0  0  0  0  0
   20.3920   27.6520   36.9520 C   0  0  0  0  0  0  0  0  0  0  0  0
   19.7300   27.8070   35.8100 N   0  0  0  0  0  0  0  0  0  0  0  0
   19.6810   27.3030   38.0970 N   0  0  0  0  0  0  0  0  0  0  0  0
   20.3240   27.1400   39.2830 C   0  0  0  0  0  0  0  0  0  0  0  0
   21.6630   27.2780   39.5330 C   0  0  0  0  0  0  0  0  0  0  0  0
   22.3940   27.6360   38.3620 C   0  0  0  0  0  0  0  0  0  0  0  0
  1  2  1  0
  3  2  1  1
  3  4  1  0
  3  5  1  0
  5  6  1  6
  5  7  1  0
  7  8  1  6
  4  9  1  0
  7  9  1  0
  9 10  1  6
 10 11  1  0
 11 12  2  0
 12 13  1  0
 13 14  1  0
 14 15  1  0
 14 16  2  0
 16 17  1  0
 17 18  2  0
 10 19  1  0
 13 19  2  0
 18 19  1  0
M  END
$$$$
1HP0_AD3_A_1315
     RDKit          3D

 19 21  0  0  0  0  0  0  0  0999 V2000
   15.6700   23.5980   10.0340 O   0  0  0  0  0  0  0  0  0  0  0  0
   16.2980   24.8650    9.8470 C   0  0  0  0  0  0  0  0  0  0  0  0
   15.4040   26.0780   10.2040 C   0  0  1  0  0  0  0  0  0  0  0  0
   15.2460   25.8080   11.6320 O   0  0  0  0  0  0  0  0  0  0  0  0
   16.5030   27.1360   10.0180 C   0  0  1  0  0  0  0  0  0  0  0  0
   15.9340   28.1520    9.1910 O   0  0  0  0  0  0  0  0  0  0  0  0
   16.9130   27.5680   11.4550 C   0  0  1  0  0  0  0  0  0  0  0  0
   16.8170   28.9510   11.8080 O   0  0  0  0  0  0  0  0  0  0  0  0
   16.0220   26.7420   12.3880 C   0  0  2  0  0  0  0  0  0  0  0  0
   16.6310   26.2200   13.6550 N   0  0  0  0  0  0  0  0  0  0  0  0
   17.2020   26.9880   14.7000 C   0  0  0  0  0  0  0  0  0  0  0  0
   17.6920   26.2980   15.7120 N   0  0  0  0  0  0  0  0  0  0  0  0
   17.4420   24.9680   15.3340 C   0  0  0  0  0  0  0  0  0  0  0  0
   17.7230   23.6890   15.9660 C   0  0  0  0  0  0  0  0  0  0  0  0
   18.3310   23.5710   17.1430 N   0  0  0  0  0  0  0  0  0  0  0  0
   17.3320   22.5450   15.2950 N   0  0  0  0  0  0  0  0  0  0  0  0
   16.7060   22.6260   14.0880 C   0  0  0  0  0  0  0  0  0  0  0  0
   16.3840   23.7440   13.3880 C   0  0  0  0  0  0  0  0  0  0  0  0
   16.7870   24.9050   14.0730 C   0  0  0  0  0  0  0  0  0  0  0  0
  1  2  1  0
  3  2  1  6
  3  4  1  0
  3  5  1  0
  5  6  1  6
  5  7  1  0
  7  8  1  6
  4  9  1  0
  7  9  1  0
  9 10  1  1
 10 11  1  0
 11 12  2  0
 12 13  1  0
 13 14  1  0
 14 15  1  0
 14 16  2  0
 16 17  1  0
 17 18  2  0
 10 19  1  0
 13 19  2  0
 18 19  1  0
M  END
$$$$
