1HP0_AD3_A_1315
     RDKit          3D

 33 35  0  0  0  0  0  0  0  0999 V2000
   -0.1165   -2.6283    2.5009 O   0  0  0  0  0  0  0  0  0  0  0  0
    0.8044   -1.8611    3.2310 C   0  0  0  0  0  0  0  0  0  0  0  0
    1.0130   -0.4832    2.5844 C   0  0  1  0  0  0  0  0  0  0  0  0
    1.4128   -0.6509    1.2388 O   0  0  0  0  0  0  0  0  0  0  0  0
   -0.2520    0.3878    2.6404 C   0  0  1  0  0  0  0  0  0  0  0  0
    0.0792    1.6984    3.0267 O   0  0  0  0  0  0  0  0  0  0  0  0
   -0.7322    0.3664    1.2105 C   0  0  1  0  0  0  0  0  0  0  0  0
   -1.3348    1.5754    0.8272 O   0  0  0  0  0  0  0  0  0  0  0  0
    0.5531    0.1280    0.4379 C   0  0  2  0  0  0  0  0  0  0  0  0
    0.2778   -0.5579   -0.8278 N   0  0  0  0  0  0  0  0  0  0  0  0
    0.1852   -1.8965   -1.0365 C   0  0  0  0  0  0  0  0  0  0  0  0
   -0.1760   -2.2192   -2.3059 N   0  0  0  0  0  0  0  0  0  0  0  0
   -0.3207   -1.0163   -2.8929 C   0  0  0  0  0  0  0  0  0  0  0  0
   -0.7045   -0.7319   -4.2030 C   0  0  0  0  0  0  0  0  0  0  0  0
   -0.9865   -1.7691   -5.1429 N   0  0  0  0  0  0  0  0  0  0  0  0
   -0.8100    0.5811   -4.5692 N   0  0  0  0  0  0  0  0  0  0  0  0
   -0.5543    1.6038   -3.6927 C   0  0  0  0  0  0  0  0  0  0  0  0
   -0.1685    1.3283   -2.3683 C   0  0  0  0  0  0  0  0  0  0  0  0
   -0.0587   -0.0149   -2.0094 C   0  0  0  0  0  0  0  0  0  0  0  0
   -1.0172   -2.4208    2.8618 H   0  0  0  0  0  0  0  0  0  0  0  0
    0.4800   -1.7465    4.2914 H   0  0  0  0  0  0  0  0  0  0  0  0
    1.7754   -2.4004    3.2419 H   0  0  0  0  0  0  0  0  0  0  0  0
    1.8403    0.0190    3.1339 H   0  0  0  0  0  0  0  0  0  0  0  0
   -1.0398   -0.0200    3.3164 H   0  0  0  0  0  0  0  0  0  0  0  0
    0.1940    1.6807    4.0127 H   0  0  0  0  0  0  0  0  0  0  0  0
   -1.4342   -0.4879    1.0587 H   0  0  0  0  0  0  0  0  0  0  0  0
   -2.2322    1.5869    1.2513 H   0  0  0  0  0  0  0  0  0  0  0  0
    1.0634    1.0965    0.2342 H   0  0  0  0  0  0  0  0  0  0  0  0
    0.3674   -2.6379   -0.2698 H   0  0  0  0  0  0  0  0  0  0  0  0
   -1.2741   -1.5293   -6.1175 H   0  0  0  0  0  0  0  0  0  0  0  0
   -0.9102   -2.7752   -4.8740 H   0  0  0  0  0  0  0  0  0  0  0  0
   -0.6519    2.6292   -4.0230 H   0  0  0  0  0  0  0  0  0  0  0  0
    0.0314    2.1281   -1.6682 H   0  0  0  0  0  0  0  0  0  0  0  0
  1  2  1  0
  3  2  1  0
  3  4  1  0
  3  5  1  0
  5  6  1  0
  5  7  1  0
  7  8  1  0
  4  9  1  0
  7  9  1  0
  9 10  1  0
 10 11  1  0
 11 12  2  0
 12 13  1  0
 13 14  1  0
 14 15  1  0
 14 16  2  0
 16 17  1  0
 17 18  2  0
 10 19  1  0
 13 19  2  0
 18 19  1  0
  1 20  1  0
  2 21  1  0
  2 22  1  0
  3 23  1  1
  5 24  1  1
  6 25  1  0
  7 26  1  1
  8 27  1  0
  9 28  1  6
 11 29  1  0
 15 30  1  0
 15 31  1  0
 17 32  1  0
 18 33  1  0
M  END
