1V0P_PVB_A_1287
     RDKit          3D

 55 57  0  0  0  0  0  0  0  0999 V2000
    0.8871    0.9952    1.5114 N   0  0  0  0  0  0  0  0  0  0  0  0
    0.8172   -4.1467    1.8610 C   0  0  1  0  0  0  0  0  0  0  0  0
    0.0132   -2.9210    1.7978 N   0  0  0  0  0  4  0  0  0  0  0  0
    0.4446   -1.6587    1.6802 C   0  0  0  0  0  0  0  0  0  0  0  0
    1.7262   -1.2191    1.6873 N   0  0  0  0  0  0  0  0  0  0  0  0
    1.9486    0.1275    1.6035 C   0  0  0  0  0  0  0  0  0  0  0  0
   -0.4055    0.5541    1.4849 C   0  0  0  0  0  0  0  0  0  0  0  0
   -0.6140   -0.8211    1.5929 C   0  0  0  0  0  0  0  0  0  0  0  0
   -1.7673   -1.5139    1.6629 N   0  0  0  0  0  0  0  0  0  0  0  0
   -1.3416   -2.8014    1.7771 C   0  0  0  0  0  0  0  0  0  0  0  0
   -1.4829    1.5001    1.4187 N   0  0  0  0  0  0  0  0  0  0  0  0
   -1.3175    2.9264    1.5014 C   0  0  0  0  0  0  0  0  0  0  0  0
   -1.5274    3.7501    0.3863 C   0  0  0  0  0  0  0  0  0  0  0  0
   -1.3485    5.1314    0.4843 C   0  0  0  0  0  0  0  0  0  0  0  0
   -0.9325    5.7241    1.6917 C   0  0  0  0  0  0  0  0  0  0  0  0
   -0.6947    4.8858    2.8114 C   0  0  0  0  0  0  0  0  0  0  0  0
   -0.1967    5.5007    4.3870 Cl  0  0  0  0  0  0  0  0  0  0  0  0
   -0.8818    3.5009    2.7007 C   0  0  0  0  0  0  0  0  0  0  0  0
   -0.7594    7.2010    1.7327 C   0  0  0  0  0  0  0  0  0  0  0  0
    0.0871    7.8266    0.8194 O   0  0  0  0  0  0  0  0  0  0  0  0
   -1.3529    7.9056    2.5920 O   0  0  0  0  0  0  0  0  0  0  0  0
    3.2956    0.6197    1.6170 N   0  0  0  0  0  0  0  0  0  0  0  0
    4.4148   -0.1044    2.2337 C   0  0  2  0  0  0  0  0  0  0  0  0
    5.1209   -1.0311    1.2026 C   0  0  1  0  0  0  0  0  0  0  0  0
    6.0356   -2.0830    1.8533 C   0  0  0  0  0  0  0  0  0  0  0  0
    4.0970   -1.7216    0.2895 C   0  0  0  0  0  0  0  0  0  0  0  0
    3.9183   -0.8785    3.4688 C   0  0  0  0  0  0  0  0  0  0  0  0
    2.5384   -1.1097    3.3731 O   0  0  0  0  0  0  0  0  0  0  0  0
    1.9825   -4.0797    0.8675 C   0  0  0  0  0  0  0  0  0  0  0  0
    1.3245   -4.3699    3.2886 C   0  0  0  0  0  0  0  0  0  0  0  0
    0.1841   -5.0184    1.5814 H   0  0  0  0  0  0  0  0  0  0  0  0
   -2.0204   -3.6421    1.8413 H   0  0  0  0  0  0  0  0  0  0  0  0
   -2.4540    1.1197    1.3436 H   0  0  0  0  0  0  0  0  0  0  0  0
   -1.8201    3.3236   -0.5648 H   0  0  0  0  0  0  0  0  0  0  0  0
   -1.5233    5.7356   -0.3974 H   0  0  0  0  0  0  0  0  0  0  0  0
   -0.7024    2.8664    3.5608 H   0  0  0  0  0  0  0  0  0  0  0  0
    0.2208    8.8312    0.8361 H   0  0  0  0  0  0  0  0  0  0  0  0
    3.4648    1.5851    1.2528 H   0  0  0  0  0  0  0  0  0  0  0  0
    5.1733    0.6181    2.6098 H   0  0  0  0  0  0  0  0  0  0  0  0
    5.7569   -0.3949    0.5481 H   0  0  0  0  0  0  0  0  0  0  0  0
    6.5380   -2.6852    1.0656 H   0  0  0  0  0  0  0  0  0  0  0  0
    6.8299   -1.5996    2.4573 H   0  0  0  0  0  0  0  0  0  0  0  0
    5.4553   -2.7753    2.5016 H   0  0  0  0  0  0  0  0  0  0  0  0
    3.4599   -2.4230    0.8692 H   0  0  0  0  0  0  0  0  0  0  0  0
    3.4471   -0.9660   -0.2042 H   0  0  0  0  0  0  0  0  0  0  0  0
    4.6204   -2.2967   -0.5069 H   0  0  0  0  0  0  0  0  0  0  0  0
    4.1016   -0.2763    4.3843 H   0  0  0  0  0  0  0  0  0  0  0  0
    4.4637   -1.8428    3.5858 H   0  0  0  0  0  0  0  0  0  0  0  0
    2.4190   -1.9172    2.8069 H   0  0  0  0  0  0  0  0  0  0  0  0
    1.6010   -3.8521   -0.1516 H   0  0  0  0  0  0  0  0  0  0  0  0
    2.7103   -3.2926    1.1644 H   0  0  0  0  0  0  0  0  0  0  0  0
    2.5112   -5.0566    0.8372 H   0  0  0  0  0  0  0  0  0  0  0  0
    1.8920   -5.3231    3.3492 H   0  0  0  0  0  0  0  0  0  0  0  0
    0.4628   -4.4288    3.9891 H   0  0  0  0  0  0  0  0  0  0  0  0
    1.9881   -3.5362    3.6034 H   0  0  0  0  0  0  0  0  0  0  0  0
  2  3  1  0
  3  4  4  0
  4  5  4  0
  1  6  4  0
  5  6  4  0
  1  7  4  0
  4  8  4  0
  7  8  4  0
  8  9  4  0
  3 10  4  0
  9 10  4  0
  7 11  1  0
 11 12  1  0
 12 13  4  0
 13 14  4  0
 14 15  4  0
 15 16  4  0
 16 17  1  0
 12 18  4  0
 16 18  4  0
 15 19  1  0
 19 20  1  0
 19 21  2  0
  6 22  1  0
 22 23  1  0
 23 24  1  0
 24 25  1  0
 24 26  1  0
 23 27  1  0
 27 28  1  0
  2 29  1  0
  2 30  1  0
  2 31  1  6
 10 32  1  0
 11 33  1  0
 13 34  1  0
 14 35  1  0
 18 36  1  0
 20 37  1  0
 22 38  1  0
 23 39  1  1
 24 40  1  6
 25 41  1  0
 25 42  1  0
 25 43  1  0
 26 44  1  0
 26 45  1  0
 26 46  1  0
 27 47  1  0
 27 48  1  0
 28 49  1  0
 29 50  1  0
 29 51  1  0
 29 52  1  0
 30 53  1  0
 30 54  1  0
 30 55  1  0
M  CHG  1   3   1
M  END
