7V8Z_5YH_A_601
     RDKit          3D

 25 28  0  0  0  0  0  0  0  0999 V2000
   -3.0707   26.9473  -14.9563 C   0  0  0  0  0  0  0  0  0  0  0  0
   -0.2090   28.3064  -14.5435 C   0  0  0  0  0  0  0  0  0  0  0  0
    2.1113   27.7412  -14.6537 C   0  0  0  0  0  0  0  0  0  0  0  0
    1.8631   26.4340  -14.9979 C   0  0  0  0  0  0  0  0  0  0  0  0
   -1.5024   24.9478  -15.4260 C   0  0  0  0  0  0  0  0  0  0  0  0
   -2.4089   23.8799  -15.7294 C   0  0  0  0  0  0  0  0  0  0  0  0
   -1.9032   22.6108  -16.0326 C   0  0  0  0  0  0  0  0  0  0  0  0
    0.4132   23.4541  -15.7597 C   0  0  0  0  0  0  0  0  0  0  0  0
   -2.9168   28.4743  -15.3710 C   0  0  2  0  0  0  0  0  0  0  0  0
   -4.1704   29.3385  -15.0398 C   0  0  0  0  0  0  0  0  0  0  0  0
   -4.0030   31.7308  -15.9606 C   0  0  0  0  0  0  0  0  0  0  0  0
   -3.4800   33.0801  -15.3814 C   0  0  0  0  0  0  0  0  0  0  0  0
   -3.2389   31.3874  -13.7720 C   0  0  0  0  0  0  0  0  0  0  0  0
   -0.5159   26.9467  -14.8911 C   0  0  0  0  0  0  0  0  0  0  0  0
    1.1372   28.7236  -14.4234 C   0  0  0  0  0  0  0  0  0  0  0  0
    0.5276   26.0054  -15.0984 C   0  0  0  0  0  0  0  0  0  0  0  0
   -0.0971   24.7343  -15.4461 C   0  0  0  0  0  0  0  0  0  0  0  0
   -0.5114   22.4640  -16.0416 C   0  0  0  0  0  0  0  0  0  0  0  0
    3.4500   28.0974  -14.5881 F   0  0  0  0  0  0  0  0  0  0  0  0
   -0.0136   21.2151  -16.3422 F   0  0  0  0  0  0  0  0  0  0  0  0
   -3.8143   30.7362  -14.9014 N   0  0  0  0  0  0  0  0  0  0  0  0
   -3.0394   32.7752  -14.0312 N   0  0  0  0  0  0  0  0  0  0  0  0
   -1.7355   26.2958  -15.0750 N   0  0  0  0  0  0  0  0  0  0  0  0
   -2.7596   28.5467  -16.7874 O   0  0  0  0  0  0  0  0  0  0  0  0
   -2.9605   30.8383  -12.7150 O   0  0  0  0  0  0  0  0  0  0  0  0
  3  4  1  0
  5  6  2  0
  6  7  1  0
  1  9  1  0
  9 10  1  0
 11 12  1  0
  2 14  2  0
  2 15  1  0
  3 15  2  0
 14 16  1  0
  4 16  2  0
  5 17  1  0
 16 17  1  0
  8 17  2  0
  7 18  2  0
  8 18  1  0
  3 19  1  0
 18 20  1  0
 13 21  1  0
 11 21  1  0
 10 21  1  0
 13 22  1  0
 12 22  1  0
  1 23  1  0
 14 23  1  0
  5 23  1  0
  9 24  1  6
 13 25  2  0
M  END
