
     RDKit          3D

 28 30  0  0  0  0  0  0  0  0999 V2000
  -34.0737   -2.1200   23.7909 O   0  0  0  0  0  0  0  0  0  0  0  0
  -34.3492   -3.4335   23.3184 C   0  0  2  0  0  0  0  0  0  0  0  0
  -33.2058   -4.4068   23.5792 C   0  0  1  0  0  0  0  0  0  0  0  0
  -33.2629   -4.9591   25.0000 C   0  0  0  0  0  0  0  0  0  0  0  0
  -32.7021   -4.0318   25.9166 O   0  0  0  0  0  0  0  0  0  0  0  0
  -31.3922   -4.4428   26.7371 P   0  0  0  0  0  5  0  0  0  0  0  0
  -31.4957   -3.5199   28.0475 O   0  0  0  0  0  0  0  0  0  0  0  0
  -30.0901   -4.1869   26.0544 O   0  0  0  0  0  0  0  0  0  0  0  0
  -31.5816   -5.9058   27.3127 O   0  0  0  0  0  0  0  0  0  0  0  0
  -30.7051   -6.6352   28.4128 P   0  0  0  0  0  5  0  0  0  0  0  0
  -31.1280   -5.8901   29.7670 O   0  0  0  0  0  0  0  0  0  0  0  0
  -29.2532   -5.9853   28.1964 O   0  0  0  0  0  0  0  0  0  0  0  0
  -30.6381   -8.5499   28.5240 S   0  0  0  0  0  0  0  0  0  0  0  0
  -33.3615   -5.4585   22.6024 O   0  0  0  0  0  0  0  0  0  0  0  0
  -34.0994   -4.9230   21.4840 C   0  0  1  0  0  0  0  0  0  0  0  0
  -35.2926   -5.7150   21.2219 N   0  0  0  0  0  0  0  0  0  0  0  0
  -36.2714   -5.3317   20.3312 C   0  0  0  0  0  0  0  0  0  0  0  0
  -37.3083   -6.1422   20.3507 N   0  0  0  0  0  0  0  0  0  0  0  0
  -36.9659   -7.1083   21.2644 C   0  0  0  0  0  0  0  0  0  0  0  0
  -37.6273   -8.2399   21.7283 C   0  0  0  0  0  0  0  0  0  0  0  0
  -38.8767   -8.5927   21.2818 O   0  0  0  0  0  0  0  0  0  0  0  0
  -37.0456   -9.0492   22.6320 N   0  0  0  0  0  0  0  0  0  0  0  0
  -35.8182   -8.7253   23.0618 C   0  0  0  0  0  0  0  0  0  0  0  0
  -35.2007   -9.6640   23.8899 N   0  0  0  0  0  0  0  0  0  0  0  0
  -35.0992   -7.6426   22.7252 N   0  0  0  0  0  0  0  0  0  0  0  0
  -35.7172   -6.8743   21.8137 C   0  0  0  0  0  0  0  0  0  0  0  0
  -34.4362   -3.4627   21.8047 C   0  0  2  0  0  0  0  0  0  0  0  0
  -33.4557   -2.5812   21.2343 O   0  0  0  0  0  0  0  0  0  0  0  0
  2  1  1  6
  2  3  1  0
  3  4  1  1
  4  5  1  0
  5  6  1  0
  6  7  1  0
  6  8  2  0
  6  9  1  0
  9 10  1  0
 10 11  1  0
 10 12  1  0
 10 13  2  0
  3 14  1  0
 14 15  1  0
 15 16  1  1
 16 17  4  0
 17 18  4  0
 18 19  4  0
 19 20  4  0
 20 21  1  0
 20 22  4  0
 22 23  4  0
 23 24  1  0
 23 25  4  0
 25 26  4  0
 16 26  4  0
 19 26  4  0
  2 27  1  0
 15 27  1  0
 27 28  1  6
M  END
