7P1M_4IU_B_201
     RDKit          3D

 42 44  0  0  0  0  0  0  0  0999 V2000
   18.9338   -9.8020   -7.1924 O   0  0  0  0  0  0  0  0  0  0  0  0
   20.1430  -10.3581   -7.6022 C   0  0  0  0  0  0  0  0  0  0  0  0
   20.2646  -11.6126   -7.6379 O   0  0  0  0  0  0  0  0  0  0  0  0
   21.2717   -9.4845   -7.9907 C   0  0  0  0  0  0  0  0  0  0  0  0
   21.1722   -8.0770   -7.8273 C   0  0  0  0  0  0  0  0  0  0  0  0
   22.2340   -7.2328   -8.1973 C   0  0  0  0  0  0  0  0  0  0  0  0
   23.3803   -7.8202   -8.7206 C   0  0  0  0  0  0  0  0  0  0  0  0
   24.4892   -7.1966   -9.1555 N   0  0  0  0  0  0  0  0  0  0  0  0
   22.4568  -10.0411   -8.5298 C   0  0  0  0  0  0  0  0  0  0  0  0
   23.4934   -9.1703   -8.8779 C   0  0  0  0  0  0  0  0  0  0  0  0
   24.6992   -9.4455   -9.4085 N   0  0  0  0  0  0  0  0  0  0  0  0
   25.2372  -10.7474   -9.8045 C   0  0  1  0  0  0  0  0  0  0  0  0
   25.2733   -8.2225   -9.5780 C   0  0  0  0  0  0  0  0  0  0  0  0
   26.6191   -7.9868  -10.2072 C   0  0  1  0  0  0  0  0  0  0  0  0
   27.0101   -6.6380  -10.0373 O   0  0  0  0  0  0  0  0  0  0  0  0
   27.6805   -6.1449  -11.1872 C   0  0  2  0  0  0  0  0  0  0  0  0
   29.0994   -5.7721  -10.8279 C   0  0  0  0  0  0  0  0  0  0  0  0
   29.7188   -4.7484  -11.4235 C   0  0  0  0  0  0  0  0  0  0  0  0
   29.0481   -3.9401  -12.3511 O   0  0  0  0  0  0  0  0  0  0  0  0
   27.7480   -4.2655  -12.8496 C   0  0  1  0  0  0  0  0  0  0  0  0
   26.9094   -4.9261  -11.7317 C   0  0  2  0  0  0  0  0  0  0  0  0
   26.6783   -4.0127  -10.6865 O   0  0  0  0  0  0  0  0  0  0  0  0
   27.0898   -3.0035  -13.4241 C   0  0  1  0  0  0  0  0  0  0  0  0
   26.6491   -3.2209  -14.7376 O   0  0  0  0  0  0  0  0  0  0  0  0
   18.7804   -8.8015   -7.2346 H   0  0  0  0  0  0  0  0  0  0  0  0
   20.2740   -7.6316   -7.4189 H   0  0  0  0  0  0  0  0  0  0  0  0
   22.1586   -6.1592   -8.0823 H   0  0  0  0  0  0  0  0  0  0  0  0
   22.5555  -11.1085   -8.6711 H   0  0  0  0  0  0  0  0  0  0  0  0
   25.4107  -11.3696   -8.9019 H   0  0  0  0  0  0  0  0  0  0  0  0
   24.5231  -11.2635  -10.4794 H   0  0  0  0  0  0  0  0  0  0  0  0
   26.1915  -10.6367  -10.3567 H   0  0  0  0  0  0  0  0  0  0  0  0
   27.3555   -8.6275   -9.6796 H   0  0  0  0  0  0  0  0  0  0  0  0
   26.6496   -8.2949  -11.2757 H   0  0  0  0  0  0  0  0  0  0  0  0
   27.7266   -6.8924  -12.0161 H   0  0  0  0  0  0  0  0  0  0  0  0
   29.6460   -6.3813  -10.1188 H   0  0  0  0  0  0  0  0  0  0  0  0
   30.7449   -4.5199  -11.1679 H   0  0  0  0  0  0  0  0  0  0  0  0
   27.8692   -4.9989  -13.6781 H   0  0  0  0  0  0  0  0  0  0  0  0
   25.9423   -5.2918  -12.1533 H   0  0  0  0  0  0  0  0  0  0  0  0
   26.9077   -3.1107  -11.0314 H   0  0  0  0  0  0  0  0  0  0  0  0
   26.2221   -2.7081  -12.7973 H   0  0  0  0  0  0  0  0  0  0  0  0
   27.8163   -2.1596  -13.4007 H   0  0  0  0  0  0  0  0  0  0  0  0
   25.8401   -3.7931  -14.6746 H   0  0  0  0  0  0  0  0  0  0  0  0
  1  2  1  0
  2  3  2  0
  2  4  1  0
  4  5  2  0
  5  6  1  0
  6  7  2  0
  7  8  1  0
  4  9  1  0
  7 10  1  0
  9 10  2  0
 10 11  1  0
 11 12  1  0
  8 13  2  0
 11 13  1  0
 13 14  1  0
 14 15  1  0
 16 15  1  0
 16 17  1  0
 17 18  2  0
 18 19  1  0
 19 20  1  0
 16 21  1  0
 20 21  1  0
 21 22  1  0
 20 23  1  0
 23 24  1  0
  1 25  1  0
  5 26  1  0
  6 27  1  0
  9 28  1  0
 12 29  1  1
 12 30  1  0
 12 31  1  0
 14 32  1  1
 14 33  1  0
 16 34  1  6
 17 35  1  0
 18 36  1  0
 20 37  1  6
 21 38  1  6
 22 39  1  0
 23 40  1  1
 23 41  1  0
 24 42  1  0
M  END
