8CSD_C5P_B_501
     RDKit          3D

 21 22  0  0  0  0  0  0  0  0999 V2000
   14.4558   11.9801   27.2958 O   0  0  0  0  0  0  0  0  0  0  0  0
   13.8801   11.4905   28.8286 P   0  0  1  0  0  0  0  0  0  0  0  0
   13.2494   10.1362   28.6420 O   0  0  0  0  0  0  0  0  0  0  0  0
   15.2190   11.2885   29.8203 O   0  0  0  0  0  0  0  0  0  0  0  0
   12.8115   12.6643   29.3458 O   0  0  0  0  0  0  0  0  0  0  0  0
   12.3512   12.4839   30.6236 C   0  0  0  0  0  0  0  0  0  0  0  0
   13.0653   13.4083   31.6191 C   0  0  1  0  0  0  0  0  0  0  0  0
   14.4242   13.4183   31.3880 O   0  0  0  0  0  0  0  0  0  0  0  0
   12.5647   14.8104   31.5137 C   0  0  1  0  0  0  0  0  0  0  0  0
   12.0974   15.2257   32.7622 O   0  0  0  0  0  0  0  0  0  0  0  0
   13.8349   15.5865   31.2321 C   0  0  1  0  0  0  0  0  0  0  0  0
   13.7644   16.8000   31.9148 O   0  0  0  0  0  0  0  0  0  0  0  0
   14.8625   14.6732   31.8254 C   0  0  2  0  0  0  0  0  0  0  0  0
   16.2152   14.9406   31.4503 N   0  0  0  0  0  0  0  0  0  0  0  0
   17.0702   15.5969   32.2604 C   0  0  0  0  0  0  0  0  0  0  0  0
   18.3593   15.8415   31.8810 N   0  0  0  0  0  0  0  0  0  0  0  0
   18.8142   15.4311   30.6797 C   0  0  0  0  0  0  0  0  0  0  0  0
   17.9599   14.7492   29.8143 C   0  0  0  0  0  0  0  0  0  0  0  0
   16.6591   14.5256   30.2470 C   0  0  0  0  0  0  0  0  0  0  0  0
   16.6918   16.0083   33.4099 O   0  0  0  0  0  0  0  0  0  0  0  0
   20.1794   15.7029   30.3056 N   0  0  0  0  0  0  0  0  0  0  0  0
  2  1  1  6
  2  3  2  0
  2  4  1  0
  2  5  1  0
  5  6  1  0
  7  6  1  6
  7  8  1  0
  7  9  1  0
  9 10  1  1
  9 11  1  0
 11 12  1  1
  8 13  1  0
 11 13  1  0
 13 14  1  6
 14 15  1  0
 15 16  1  0
 16 17  2  0
 17 18  1  0
 14 19  1  0
 18 19  2  0
 15 20  2  0
 17 21  1  0
M  END
$$$$
