7VB8_STL_A_401
     RDKit          3D

 29 30  0  0  0  0  0  0  0  0999 V2000
   -5.7020   27.1716  -22.0195 C   0  0  0  0  0  0  0  0  0  0  0  0
   -5.4625   26.3009  -23.0857 C   0  0  0  0  0  0  0  0  0  0  0  0
   -5.0815   24.9789  -22.8432 C   0  0  0  0  0  0  0  0  0  0  0  0
   -4.9309   24.5269  -21.5251 C   0  0  0  0  0  0  0  0  0  0  0  0
   -5.1486   25.3943  -20.4411 C   0  0  0  0  0  0  0  0  0  0  0  0
   -5.5499   26.7208  -20.7005 C   0  0  0  0  0  0  0  0  0  0  0  0
   -4.9852   24.8637  -19.0647 C   0  0  0  0  0  0  0  0  0  0  0  0
   -4.8400   25.6419  -17.9803 C   0  0  0  0  0  0  0  0  0  0  0  0
   -4.6763   25.1126  -16.6034 C   0  0  0  0  0  0  0  0  0  0  0  0
   -4.3567   23.7646  -16.3397 C   0  0  0  0  0  0  0  0  0  0  0  0
   -4.2017   23.3189  -15.0232 C   0  0  0  0  0  0  0  0  0  0  0  0
   -4.3523   24.2073  -13.9552 C   0  0  0  0  0  0  0  0  0  0  0  0
   -4.6542   25.5508  -14.2079 C   0  0  0  0  0  0  0  0  0  0  0  0
   -4.8091   26.0009  -15.5224 C   0  0  0  0  0  0  0  0  0  0  0  0
   -4.1960   23.7471  -12.6496 O   0  0  0  0  0  0  0  0  0  0  0  0
   -4.8551   24.1217  -23.9178 O   0  0  0  0  0  0  0  0  0  0  0  0
   -6.0955   28.4824  -22.2805 O   0  0  0  0  0  0  0  0  0  0  0  0
   -5.5798   26.6502  -24.1041 H   0  0  0  0  0  0  0  0  0  0  0  0
   -4.6341   23.4999  -21.3476 H   0  0  0  0  0  0  0  0  0  0  0  0
   -5.7729   27.4040  -19.8931 H   0  0  0  0  0  0  0  0  0  0  0  0
   -4.9680   23.7878  -18.9582 H   0  0  0  0  0  0  0  0  0  0  0  0
   -4.8556   26.7178  -18.0880 H   0  0  0  0  0  0  0  0  0  0  0  0
   -4.1993   23.0550  -17.1396 H   0  0  0  0  0  0  0  0  0  0  0  0
   -3.9562   22.2816  -14.8332 H   0  0  0  0  0  0  0  0  0  0  0  0
   -4.7679   26.2476  -13.3872 H   0  0  0  0  0  0  0  0  0  0  0  0
   -5.0427   27.0445  -15.6954 H   0  0  0  0  0  0  0  0  0  0  0  0
   -4.3502   24.3536  -11.8525 H   0  0  0  0  0  0  0  0  0  0  0  0
   -4.6746   23.1342  -23.7790 H   0  0  0  0  0  0  0  0  0  0  0  0
   -6.3279   29.1253  -21.5324 H   0  0  0  0  0  0  0  0  0  0  0  0
  1  2  2  0
  2  3  1  0
  3  4  2  0
  4  5  1  0
  1  6  1  0
  5  6  2  0
  5  7  1  0
  7  8  2  0
  8  9  1  0
  9 10  2  0
 10 11  1  0
 11 12  2  0
 12 13  1  0
  9 14  1  0
 13 14  2  0
 12 15  1  0
  3 16  1  0
  1 17  1  0
  2 18  1  0
  4 19  1  0
  6 20  1  0
  7 21  1  0
  8 22  1  0
 10 23  1  0
 11 24  1  0
 13 25  1  0
 14 26  1  0
 15 27  1  0
 16 28  1  0
 17 29  1  0
M  END
