1HQ2_PH2_A_181
     RDKit          3D

 23 24  0  0  0  0  0  0  0  0999 V2000
    3.2394   -0.6658    0.4388 N   0  0  0  0  0  0  0  0  0  0  0  0
    3.4654   -1.9443    0.3362 C   0  0  0  0  0  0  0  0  0  0  0  0
    2.3430   -2.9432    0.1178 C   0  0  0  0  0  0  0  0  0  0  0  0
    1.0438   -2.3088   -0.1225 N   0  0  0  0  0  0  0  0  0  0  0  0
   -0.3932   -0.3596   -0.1020 N   0  0  0  0  0  0  0  0  0  0  0  0
   -0.5862    0.9795    0.0393 C   0  0  0  0  0  0  0  0  0  0  0  0
   -1.8978    1.5244   -0.1053 N   0  0  0  0  0  0  0  0  0  0  0  0
    0.4716    1.7943    0.3170 N   0  0  0  0  0  4  0  0  0  0  0  0
    1.7272    1.2848    0.4549 C   0  0  0  0  0  0  0  0  0  0  0  0
    2.6946    2.0523    0.7080 O   0  0  0  0  0  0  0  0  0  0  0  0
    1.9361   -0.0898    0.3139 C   0  0  0  0  0  0  0  0  0  0  0  0
    0.8441   -0.9034    0.0320 C   0  0  0  0  0  0  0  0  0  0  0  0
    4.8709   -2.4443    0.4968 C   0  0  0  0  0  0  0  0  0  0  0  0
    4.8722   -3.6757    1.1665 O   0  0  0  0  0  0  0  0  0  0  0  0
    2.2635   -3.5939    1.0142 H   0  0  0  0  0  0  0  0  0  0  0  0
    2.5948   -3.5819   -0.7551 H   0  0  0  0  0  0  0  0  0  0  0  0
    0.2241   -2.9176   -0.3441 H   0  0  0  0  0  0  0  0  0  0  0  0
   -2.0643    2.5498   -0.0005 H   0  0  0  0  0  0  0  0  0  0  0  0
   -2.7071    0.9001   -0.3182 H   0  0  0  0  0  0  0  0  0  0  0  0
    0.3190    2.8230    0.4239 H   0  0  0  0  0  0  0  0  0  0  0  0
    5.4696   -1.7210    1.0902 H   0  0  0  0  0  0  0  0  0  0  0  0
    5.3551   -2.5375   -0.5020 H   0  0  0  0  0  0  0  0  0  0  0  0
    4.6427   -4.3682    0.4928 H   0  0  0  0  0  0  0  0  0  0  0  0
  1  2  2  0
  2  3  1  0
  3  4  1  0
  5  6  4  0
  6  7  1  0
  6  8  4  0
  8  9  4  0
  9 10  2  0
  1 11  1  0
  9 11  4  0
  4 12  1  0
  5 12  4  0
 11 12  4  0
  2 13  1  0
 13 14  1  0
  3 15  1  0
  3 16  1  0
  4 17  1  0
  7 18  1  0
  7 19  1  0
  8 20  1  0
 13 21  1  0
 13 22  1  0
 14 23  1  0
M  CHG  1   8   1
M  END
