1YGC_905_H_1
     RDKit          3D

 38 40  0  0  0  0  0  0  0  0999 V2000
   12.9800   41.1500   27.0956 O   0  0  0  0  0  0  0  0  0  0  0  0
   13.5919   40.5931   28.3332 C   0  0  0  0  0  0  0  0  0  0  0  0
   12.8120   39.8027   29.2000 C   0  0  0  0  0  0  0  0  0  0  0  0
   13.3868   39.2669   30.3833 C   0  0  0  0  0  0  0  0  0  0  0  0
   12.5632   38.4652   31.2633 N   0  0  0  0  0  0  0  0  0  0  0  0
   11.1441   38.8021   31.4347 C   0  0  1  0  0  0  0  0  0  0  0  0
   10.5670   38.1900   32.6748 C   0  0  0  0  0  0  0  0  0  0  0  0
   11.2066   38.1272   33.7329 O   0  0  0  0  0  0  0  0  0  0  0  0
    9.3329   37.7239   32.5772 N   0  0  0  0  0  0  0  0  0  0  0  0
    8.5348   36.9495   33.8239 S   0  0  2  0  0  0  0  0  0  0  0  0
    9.2034   35.7172   34.1228 O   0  0  0  0  0  0  0  0  0  0  0  0
    7.1679   36.7390   33.4674 O   0  0  0  0  0  0  0  0  0  0  0  0
    8.6439   38.0407   35.1692 C   0  0  0  0  0  0  0  0  0  0  0  0
    8.0439   37.7337   36.4208 C   0  0  0  0  0  0  0  0  0  0  0  0
    8.1629   38.6711   37.5001 C   0  0  0  0  0  0  0  0  0  0  0  0
    8.8776   39.8953   37.3137 C   0  0  0  0  0  0  0  0  0  0  0  0
    9.4777   40.1916   36.0551 C   0  0  0  0  0  0  0  0  0  0  0  0
   10.1482   41.3347   35.8763 N   0  0  0  0  0  0  0  0  0  0  0  0
    9.3597   39.2667   34.9877 C   0  0  0  0  0  0  0  0  0  0  0  0
   11.0639   40.3407   31.6619 C   0  0  0  0  0  0  0  0  0  0  0  0
   10.5192   41.1782   30.6544 C   0  0  0  0  0  0  0  0  0  0  0  0
   10.0651   40.6583   29.5042 F   0  0  0  0  0  0  0  0  0  0  0  0
   10.4494   42.5628   30.8526 C   0  0  0  0  0  0  0  0  0  0  0  0
    9.8896   43.4168   29.7854 O   0  0  0  0  0  0  0  0  0  0  0  0
   10.3858   44.8847   29.9487 C   0  0  0  0  0  0  0  0  0  0  0  0
    9.7682   45.7401   28.8422 C   0  0  0  0  0  0  0  0  0  0  0  0
   10.9195   43.1399   32.0523 C   0  0  0  0  0  0  0  0  0  0  0  0
   11.4629   42.3315   33.0685 C   0  0  0  0  0  0  0  0  0  0  0  0
   11.9427   43.0108   34.2987 O   0  0  0  0  0  0  0  0  0  0  0  0
   11.7362   42.1715   35.5707 C   0  0  0  0  0  0  0  0  0  0  0  0
   12.3958   42.9276   36.7197 C   0  0  0  0  0  0  0  0  0  0  0  0
   11.5458   40.9188   32.8868 C   0  0  0  0  0  0  0  0  0  0  0  0
   14.7423   39.5213   30.6986 C   0  0  0  0  0  0  0  0  0  0  0  0
   15.5295   40.3202   29.8308 C   0  0  0  0  0  0  0  0  0  0  0  0
   14.9637   40.8598   28.6516 C   0  0  0  0  0  0  0  0  0  0  0  0
   15.7932   41.6872   27.7589 C   0  0  0  0  0  0  0  0  0  0  0  0
   16.2297   42.8769   28.1657 N   0  0  0  0  0  0  0  0  0  0  0  0
   16.1052   41.2464   26.5505 N   0  0  0  0  0  0  0  0  0  0  0  0
  1  2  1  0
  2  3  2  0
  3  4  1  0
  4  5  1  0
  6  5  1  1
  6  7  1  0
  7  8  2  0
  7  9  1  0
 10  9  1  6
 10 11  2  0
 10 12  2  0
 10 13  1  0
 13 14  2  0
 14 15  1  0
 15 16  2  0
 16 17  1  0
 17 18  1  0
 13 19  1  0
 17 19  2  0
  6 20  1  0
 20 21  2  0
 21 22  1  0
 21 23  1  0
 23 24  1  0
 24 25  1  0
 25 26  1  0
 23 27  2  0
 27 28  1  0
 28 29  1  0
 29 30  1  0
 30 31  1  0
 20 32  1  0
 28 32  2  0
  4 33  2  0
 33 34  1  0
  2 35  1  0
 34 35  2  0
 35 36  1  0
 36 37  2  0
 36 38  1  0
M  END
