8EYE_X4I_A_1106
     RDKit          3D

 33 35  0  0  0  0  0  0  0  0999 V2000
   12.4235  -16.2812   16.8808 C   0  0  0  0  0  0  0  0  0  0  0  0
   12.9935  -18.8373   13.7515 N   0  0  0  0  0  0  0  0  0  0  0  0
   12.4144  -19.5065   12.6669 C   0  0  0  0  0  0  0  0  0  0  0  0
   11.6884  -20.4698    7.9919 C   0  0  0  0  0  0  0  0  0  0  0  0
   13.0870  -19.5450    6.2755 C   0  0  0  0  0  0  0  0  0  0  0  0
   13.6852  -18.7425    7.2224 C   0  0  0  0  0  0  0  0  0  0  0  0
   10.7612  -14.1624   20.3244 C   0  0  0  0  0  0  0  0  0  0  0  0
   11.0641  -15.0617   19.3229 C   0  0  0  0  0  0  0  0  0  0  0  0
   12.2429  -15.7792   19.3073 C   0  0  0  0  0  0  0  0  0  0  0  0
   12.4840  -16.7151   18.2029 C   0  0  0  0  0  0  0  0  0  0  0  0
   12.7763  -18.0476   18.4574 C   0  0  0  0  0  0  0  0  0  0  0  0
   13.0040  -18.9269   17.3928 C   0  0  0  0  0  0  0  0  0  0  0  0
   12.9420  -18.4864   16.0747 C   0  0  0  0  0  0  0  0  0  0  0  0
   12.6530  -17.1723   15.8366 C   0  0  0  0  0  0  0  0  0  0  0  0
   13.1916  -19.5042   15.0254 C   0  0  2  0  0  0  0  0  0  0  0  0
   12.3014  -18.8464   11.3405 C   0  0  0  0  0  0  0  0  0  0  0  0
   12.2815  -19.6658    8.9647 C   0  0  0  0  0  0  0  0  0  0  0  0
   12.0866  -20.4106    6.6602 C   0  0  0  0  0  0  0  0  0  0  0  0
   13.2733  -18.8163    8.5486 C   0  0  0  0  0  0  0  0  0  0  0  0
   14.5330  -20.1063   15.1224 C   0  0  0  0  0  0  0  0  0  0  0  0
   13.1739  -15.6070   20.3258 C   0  0  0  0  0  0  0  0  0  0  0  0
   12.8920  -14.7070   21.3459 C   0  0  0  0  0  0  0  0  0  0  0  0
   11.6930  -13.9925   21.3405 C   0  0  0  0  0  0  0  0  0  0  0  0
    9.5928  -13.4523   20.3380 F   0  0  0  0  0  0  0  0  0  0  0  0
   11.4671  -21.2181    5.7788 F   0  0  0  0  0  0  0  0  0  0  0  0
   14.6704  -17.8929    6.8330 F   0  0  0  0  0  0  0  0  0  0  0  0
   13.7916  -14.5182   22.3616 F   0  0  0  0  0  0  0  0  0  0  0  0
   11.3968  -13.1016   22.3363 F   0  0  0  0  0  0  0  0  0  0  0  0
   11.8703  -19.7460   10.3017 N   0  0  0  0  0  0  0  0  0  0  0  0
   14.7504  -21.3524   15.7677 N   0  0  0  0  0  0  0  0  0  0  0  0
   11.9943  -20.6953   12.8722 O   0  0  0  0  0  0  0  0  0  0  0  0
   16.0092  -21.8236   15.9041 O   0  0  0  0  0  0  0  0  0  0  0  0
   15.5264  -19.4879   14.6088 O   0  0  0  0  0  0  0  0  0  0  0  0
  2  3  1  0
  5  6  1  0
  7  8  2  0
  8  9  1  0
  1 10  2  0
  9 10  1  0
 10 11  1  0
 11 12  2  0
 12 13  1  0
 13 14  2  0
  1 14  1  0
 15  2  1  6
 13 15  1  0
  3 16  1  0
  4 17  2  0
  4 18  1  0
  5 18  2  0
 17 19  1  0
  6 19  2  0
 15 20  1  0
  9 21  2  0
 21 22  1  0
  7 23  1  0
 22 23  2  0
  7 24  1  0
 18 25  1  0
  6 26  1  0
 22 27  1  0
 23 28  1  0
 16 29  1  6
 17 29  1  0
 20 30  1  0
  3 31  2  0
 30 32  1  0
 20 33  2  0
M  END
$$$$
