6XG5_TOP_A_303
     RDKit          3D

 39 40  0  0  0  0  0  0  0  0999 V2000
   -9.5154   25.7015   17.0835 C   0  0  0  0  0  0  0  0  0  0  0  0
   -9.4017   24.4776   17.6573 N   0  0  0  0  0  0  0  0  0  0  0  0
  -10.4120   23.9562   18.3975 C   0  0  0  0  0  0  0  0  0  0  0  0
  -10.2708   22.6681   18.9915 N   0  0  0  0  0  0  0  0  0  0  0  0
  -11.5566   24.6642   18.5739 N   0  0  0  0  0  0  0  0  0  0  0  0
  -11.7264   25.8955   18.0224 C   0  0  0  0  0  0  0  0  0  0  0  0
  -12.9601   26.5835   18.2536 N   0  0  0  0  0  0  0  0  0  0  0  0
  -10.6884   26.4552   17.2425 C   0  0  0  0  0  0  0  0  0  0  0  0
  -10.7749   27.8319   16.6220 C   0  0  2  0  0  0  0  0  0  0  0  0
   -9.4583   28.5631   16.7271 C   0  0  0  0  0  0  0  0  0  0  0  0
   -8.2546   27.8475   16.7259 C   0  0  0  0  0  0  0  0  0  0  0  0
   -7.0154   28.5094   16.8230 C   0  0  0  0  0  0  0  0  0  0  0  0
   -5.8126   27.7852   16.8327 O   0  0  0  0  0  0  0  0  0  0  0  0
   -5.4766   26.7449   15.9197 C   0  0  1  0  0  0  0  0  0  0  0  0
   -6.9926   29.9255   16.9113 C   0  0  0  0  0  0  0  0  0  0  0  0
   -5.8097   30.6830   17.0152 O   0  0  0  0  0  0  0  0  0  0  0  0
   -4.4778   30.1811   17.0250 C   0  0  2  0  0  0  0  0  0  0  0  0
   -8.2001   30.6434   16.8952 C   0  0  0  0  0  0  0  0  0  0  0  0
   -8.1390   32.0443   16.9792 O   0  0  0  0  0  0  0  0  0  0  0  0
   -9.2295   32.9200   16.7108 C   0  0  2  0  0  0  0  0  0  0  0  0
   -9.4244   29.9600   16.7974 C   0  0  0  0  0  0  0  0  0  0  0  0
   -8.6860   26.0892   16.5060 H   0  0  0  0  0  0  0  0  0  0  0  0
   -9.5496   21.9998   18.6397 H   0  0  0  0  0  0  0  0  0  0  0  0
  -10.8871   22.3809   19.7839 H   0  0  0  0  0  0  0  0  0  0  0  0
  -13.8437   26.0377   18.3609 H   0  0  0  0  0  0  0  0  0  0  0  0
  -13.0259   27.6214   18.3066 H   0  0  0  0  0  0  0  0  0  0  0  0
  -11.6014   28.4051   17.0933 H   0  0  0  0  0  0  0  0  0  0  0  0
  -11.0471   27.7549   15.5466 H   0  0  0  0  0  0  0  0  0  0  0  0
   -8.2936   26.7698   16.6497 H   0  0  0  0  0  0  0  0  0  0  0  0
   -4.3908   26.7944   15.6991 H   0  0  0  0  0  0  0  0  0  0  0  0
   -5.7024   25.7545   16.3686 H   0  0  0  0  0  0  0  0  0  0  0  0
   -6.0374   26.8740   14.9699 H   0  0  0  0  0  0  0  0  0  0  0  0
   -4.3033   29.5351   16.1390 H   0  0  0  0  0  0  0  0  0  0  0  0
   -4.2819   29.6277   17.9674 H   0  0  0  0  0  0  0  0  0  0  0  0
   -3.7729   31.0359   16.9733 H   0  0  0  0  0  0  0  0  0  0  0  0
   -9.7468   32.6111   15.7779 H   0  0  0  0  0  0  0  0  0  0  0  0
   -8.8418   33.9506   16.5765 H   0  0  0  0  0  0  0  0  0  0  0  0
   -9.9411   32.9165   17.5633 H   0  0  0  0  0  0  0  0  0  0  0  0
  -10.3543   30.5112   16.7728 H   0  0  0  0  0  0  0  0  0  0  0  0
  1  2  2  0
  2  3  1  0
  3  4  1  0
  3  5  2  0
  5  6  1  0
  6  7  1  0
  1  8  1  0
  6  8  2  0
  8  9  1  0
  9 10  1  0
 10 11  2  0
 11 12  1  0
 12 13  1  0
 13 14  1  0
 12 15  2  0
 15 16  1  0
 16 17  1  0
 15 18  1  0
 18 19  1  0
 19 20  1  0
 10 21  1  0
 18 21  2  0
  1 22  1  0
  4 23  1  0
  4 24  1  0
  7 25  1  0
  7 26  1  0
  9 27  1  1
  9 28  1  0
 11 29  1  0
 14 30  1  6
 14 31  1  0
 14 32  1  0
 17 33  1  6
 17 34  1  0
 17 35  1  0
 20 36  1  6
 20 37  1  0
 20 38  1  0
 21 39  1  0
M  END
