6ZC3_JOR_B_401
     RDKit          3D

 15 15  0  0  0  0  0  0  0  0999 V2000
  -42.7118   28.1954   19.5141 C   0  0  0  0  0  0  0  0  0  0  0  0
  -42.1178   29.6842   20.2452 S   0  0  2  0  0  0  0  0  0  0  0  0
  -43.2905   30.4246   20.8729 O   0  0  0  0  0  0  0  0  0  0  0  0
  -41.5589   30.6173   19.1866 O   0  0  0  0  0  0  0  0  0  0  0  0
  -40.9465   29.3487   21.4283 N   0  0  0  0  0  0  0  0  0  0  0  0
  -40.7135   30.0577   22.6241 C   0  0  0  0  0  0  0  0  0  0  0  0
  -41.0792   31.3700   22.8373 C   0  0  0  0  0  0  0  0  0  0  0  0
  -40.8176   32.0576   24.0118 C   0  0  0  0  0  0  0  0  0  0  0  0
  -40.1659   31.4424   25.0375 C   0  0  0  0  0  0  0  0  0  0  0  0
  -39.9141   32.1166   26.1767 F   0  0  0  0  0  0  0  0  0  0  0  0
  -39.7856   30.1317   24.8608 C   0  0  0  0  0  0  0  0  0  0  0  0
  -40.0487   29.4334   23.6756 C   0  0  0  0  0  0  0  0  0  0  0  0
  -39.6123   28.0492   23.6469 C   0  0  0  0  0  0  0  0  0  0  0  0
  -39.6630   27.3012   22.6378 O   0  0  0  0  0  0  0  0  0  0  0  0
  -39.0881   27.4515   24.7984 O   0  0  0  0  0  0  0  0  0  0  0  0
  2  1  1  6
  2  3  2  0
  2  4  2  0
  2  5  1  0
  5  6  1  0
  6  7  2  0
  7  8  1  0
  8  9  2  0
  9 10  1  0
  9 11  1  0
 11 12  2  0
  6 12  1  0
 12 13  1  0
 13 14  2  0
 13 15  1  0
M  END
$$$$
