1N1M_A3M_A_954
     RDKit          3D

 30 30  0  0  0  0  0  0  0  0999 V2000
  102.7859   67.7416  102.2982 C   0  0  2  0  0  0  0  0  0  0  0  0
  103.0555   67.8003  100.7998 C   0  0  2  0  0  0  0  0  0  0  0  0
  104.0663   68.8304  100.6204 N   0  0  0  0  0  0  0  0  0  0  0  0
  104.3910   69.5102  101.8628 C   0  0  1  0  0  0  0  0  0  0  0  0
  103.3642   69.0286  102.8767 C   0  0  2  0  0  0  0  0  0  0  0  0
  104.7917   69.0843   99.4011 C   0  0  0  0  0  0  0  0  0  0  0  0
  104.9896   68.0337   98.3271 C   0  0  2  0  0  0  0  0  0  0  0  0
  103.9345   68.1485   97.1844 C   0  0  1  0  0  0  0  0  0  0  0  0
  104.5575   68.7219   95.8999 C   0  0  2  0  0  0  0  0  0  0  0  0
  105.2282   70.2476   99.1827 O   0  0  0  0  0  0  0  0  0  0  0  0
  105.0230   66.6987   98.9357 N   0  0  0  0  0  0  0  0  0  0  0  0
  103.3007   66.7828   96.8726 C   0  0  1  0  0  0  0  0  0  0  0  0
  103.3143   66.8679  102.7397 H   0  0  0  0  0  0  0  0  0  0  0  0
  101.6984   67.6557  102.5123 H   0  0  0  0  0  0  0  0  0  0  0  0
  102.1266   68.0753  100.2596 H   0  0  0  0  0  0  0  0  0  0  0  0
  103.4345   66.8174  100.4467 H   0  0  0  0  0  0  0  0  0  0  0  0
  105.4169   69.2290  102.1865 H   0  0  0  0  0  0  0  0  0  0  0  0
  104.3239   70.6119  101.7301 H   0  0  0  0  0  0  0  0  0  0  0  0
  103.8271   68.8542  103.8722 H   0  0  0  0  0  0  0  0  0  0  0  0
  102.5554   69.7857  102.9762 H   0  0  0  0  0  0  0  0  0  0  0  0
  105.9900   68.2213   97.8700 H   0  0  0  0  0  0  0  0  0  0  0  0
  103.1191   68.8341   97.4958 H   0  0  0  0  0  0  0  0  0  0  0  0
  103.7674   69.1029   95.2178 H   0  0  0  0  0  0  0  0  0  0  0  0
  105.1483   67.9453   95.3702 H   0  0  0  0  0  0  0  0  0  0  0  0
  105.2506   69.5550   96.1450 H   0  0  0  0  0  0  0  0  0  0  0  0
  104.9931   66.7715   99.9781 H   0  0  0  0  0  0  0  0  0  0  0  0
  104.1660   66.1731   98.6465 H   0  0  0  0  0  0  0  0  0  0  0  0
  103.6678   66.0081   97.5773 H   0  0  0  0  0  0  0  0  0  0  0  0
  102.1966   66.8347   96.9856 H   0  0  0  0  0  0  0  0  0  0  0  0
  103.5385   66.4685   95.8338 H   0  0  0  0  0  0  0  0  0  0  0  0
  1  2  1  0
  2  3  1  0
  3  4  1  0
  1  5  1  0
  4  5  1  0
  3  6  1  0
  6  7  1  0
  7  8  1  0
  8  9  1  0
  6 10  2  0
  7 11  1  0
  8 12  1  0
  1 13  1  1
  1 14  1  0
  2 15  1  6
  2 16  1  0
  4 17  1  1
  4 18  1  0
  5 19  1  1
  5 20  1  0
  7 21  1  6
  8 22  1  1
  9 23  1  6
  9 24  1  0
  9 25  1  0
 11 26  1  0
 11 27  1  0
 12 28  1  1
 12 29  1  0
 12 30  1  0
M  END
