7OCB_V88_B_301
     RDKit          3D

 41 45  0  0  0  0  0  0  0  0999 V2000
  -13.3878  -43.9182   -7.8313 N   0  0  0  0  0  0  0  0  0  0  0  0
   -6.9913  -41.7048   -6.8254 N   0  0  0  0  0  0  0  0  0  0  0  0
   -9.8282  -41.7679   -4.7498 C   0  0  0  0  0  0  0  0  0  0  0  0
  -11.8064  -42.8744   -5.8940 C   0  0  1  0  0  0  0  0  0  0  0  0
  -13.2823  -42.5621   -5.7717 C   0  0  0  0  0  0  0  0  0  0  0  0
  -13.9807  -42.7902   -7.0978 C   0  0  0  0  0  0  0  0  0  0  0  0
  -14.2968  -44.4444   -8.8736 C   0  0  2  0  0  0  0  0  0  0  0  0
  -15.2870  -45.4724   -8.3238 C   0  0  0  0  0  0  0  0  0  0  0  0
   -7.7862  -41.4860   -5.7582 C   0  0  0  0  0  0  0  0  0  0  0  0
   -6.8977  -41.6748   -9.2705 C   0  0  0  0  0  0  0  0  0  0  0  0
   -7.5047  -42.5763  -11.4390 C   0  0  0  0  0  0  0  0  0  0  0  0
   -8.4007  -39.2722   -1.6494 C   0  0  0  0  0  0  0  0  0  0  0  0
   -6.7311  -38.2599   -0.2676 C   0  0  0  0  0  0  0  0  0  0  0  0
   -6.7526  -37.5774    1.0706 C   0  0  0  0  0  0  0  0  0  0  0  0
   -9.0974  -39.3383    3.6818 C   0  0  0  0  0  0  0  0  0  0  0  0
  -11.0939  -38.9920    5.3252 C   0  0  0  0  0  0  0  0  0  0  0  0
  -12.0642  -36.8061    5.3841 C   0  0  0  0  0  0  0  0  0  0  0  0
  -11.1123  -42.2711   -4.7576 N   0  0  0  0  0  0  0  0  0  0  0  0
  -11.6199  -40.0559   -0.1088 C   0  0  0  0  0  0  0  0  0  0  0  0
  -10.3374  -39.4550   -0.3754 O   0  0  0  0  0  0  0  0  0  0  0  0
   -9.6922  -39.8176   -1.5224 C   0  0  0  0  0  0  0  0  0  0  0  0
  -12.8143  -44.9188   -6.9105 C   0  0  0  0  0  0  0  0  0  0  0  0
  -11.6274  -44.3516   -6.0938 C   0  0  0  0  0  0  0  0  0  0  0  0
   -7.4365  -42.3549   -8.0515 C   0  0  0  0  0  0  0  0  0  0  0  0
   -9.2191  -41.9515   -9.9052 C   0  0  0  0  0  0  0  0  0  0  0  0
   -8.0658  -40.4940   -3.6995 C   0  0  0  0  0  0  0  0  0  0  0  0
   -7.6061  -39.5995   -2.7090 C   0  0  0  0  0  0  0  0  0  0  0  0
  -10.1804  -40.6649   -2.4774 C   0  0  0  0  0  0  0  0  0  0  0  0
   -7.1993  -38.4937    2.1726 C   0  0  0  0  0  0  0  0  0  0  0  0
  -10.1922  -38.5669    4.3601 C   0  0  0  0  0  0  0  0  0  0  0  0
  -12.0270  -38.1100    5.8312 C   0  0  0  0  0  0  0  0  0  0  0  0
  -11.1765  -36.3735    4.4129 C   0  0  0  0  0  0  0  0  0  0  0  0
   -9.3742  -41.0192   -3.6030 C   0  0  0  0  0  0  0  0  0  0  0  0
  -10.2345  -37.2565    3.8985 C   0  0  0  0  0  0  0  0  0  0  0  0
   -9.1475  -36.9988    2.9004 C   0  0  0  0  0  0  0  0  0  0  0  0
  -13.5096  -45.0055  -10.0460 C   0  0  0  0  0  0  0  0  0  0  0  0
   -9.0425  -41.9674   -5.8160 N   0  0  0  0  0  0  0  0  0  0  0  0
   -7.8690  -41.6384  -10.3662 N   0  0  0  0  0  0  0  0  0  0  0  0
   -7.2452  -40.7766   -4.7544 N   0  0  0  0  0  0  0  0  0  0  0  0
   -8.6012  -38.3649    2.5944 N   0  0  0  0  0  0  0  0  0  0  0  0
   -8.1009  -38.4017   -0.6513 O   0  0  0  0  0  0  0  0  0  0  0  0
  4  5  1  0
  1  6  1  0
  5  6  1  0
  1  7  1  0
  7  8  1  1
  2  9  1  0
 13 14  1  0
  4 18  1  1
  3 18  1  0
 19 20  1  0
 12 21  1  0
 20 21  1  0
  1 22  1  0
  4 23  1  0
 22 23  1  0
 10 24  1  0
  2 24  1  0
 26 27  1  0
 12 27  2  0
 21 28  2  0
 14 29  1  0
 15 30  1  0
 16 30  2  0
 17 31  2  0
 16 31  1  0
 17 32  1  0
  3 33  2  0
 26 33  1  0
 28 33  1  0
 32 34  2  0
 30 34  1  0
 34 35  1  0
  7 36  1  0
  9 37  2  0
  3 37  1  0
 25 38  1  0
 11 38  1  0
 10 38  1  0
  9 39  1  0
 26 39  2  0
 35 40  1  0
 29 40  1  0
 15 40  1  0
 12 41  1  0
 13 41  1  0
M  END
