@<TRIPOS>MOLECULE
1HP0_AD3_A_1315
 33 35 0 0 0
SMALL
GASTEIGER

@<TRIPOS>ATOM
      1 O5*        -0.1165   -2.6283    2.5009 O.3     1  UNL1       -0.3924
      2 C5*         0.8044   -1.8611    3.2310 C.3     1  UNL1        0.0730
      3 C4*         1.0130   -0.4832    2.5844 C.3     1  UNL1        0.1126
      4 O4*         1.4128   -0.6509    1.2388 O.3     1  UNL1       -0.3457
      5 C3*        -0.2520    0.3878    2.6404 C.3     1  UNL1        0.1135
      6 O3*         0.0792    1.6984    3.0267 O.3     1  UNL1       -0.3864
      7 C2*        -0.7322    0.3664    1.2105 C.3     1  UNL1        0.1285
      8 O2*        -1.3348    1.5754    0.8272 O.3     1  UNL1       -0.3847
      9 C1*         0.5531    0.1280    0.4379 C.3     1  UNL1        0.1655
     10 N           0.2778   -0.5579   -0.8278 N.ar    1  UNL1       -0.3008
     11 C           0.1852   -1.8965   -1.0365 C.ar    1  UNL1        0.0992
     12 N          -0.1760   -2.2192   -2.3059 N.ar    1  UNL1       -0.2322
     13 C          -0.3207   -1.0163   -2.8929 C.ar    1  UNL1        0.1284
     14 C          -0.7045   -0.7319   -4.2030 C.ar    1  UNL1        0.1438
     15 N          -0.9865   -1.7691   -5.1429 N.pl3   1  UNL1       -0.3414
     16 N          -0.8100    0.5811   -4.5692 N.ar    1  UNL1       -0.2384
     17 C          -0.5543    1.6038   -3.6927 C.ar    1  UNL1        0.0318
     18 C          -0.1685    1.3283   -2.3683 C.ar    1  UNL1       -0.0177
     19 C          -0.0587   -0.0149   -2.0094 C.ar    1  UNL1        0.0756
     20 H5*        -1.0172   -2.4208    2.8618 H       1  UNL1        0.2095
     21 H5*1        0.4800   -1.7465    4.2914 H       1  UNL1        0.0584
     22 H5*2        1.7754   -2.4004    3.2419 H       1  UNL1        0.0584
     23 H4*         1.8403    0.0190    3.1339 H       1  UNL1        0.0647
     24 H3*        -1.0398   -0.0200    3.3164 H       1  UNL1        0.0647
     25 H3*         0.1940    1.6807    4.0127 H       1  UNL1        0.2100
     26 H2*        -1.4342   -0.4879    1.0587 H       1  UNL1        0.0665
     27 H2*        -2.2322    1.5869    1.2513 H       1  UNL1        0.2101
     28 H1*         1.0634    1.0965    0.2342 H       1  UNL1        0.0866
     29 H           0.3674   -2.6379   -0.2698 H       1  UNL1        0.1030
     30 H          -1.2741   -1.5293   -6.1175 H       1  UNL1        0.1438
     31 H          -0.9102   -2.7752   -4.8740 H       1  UNL1        0.1438
     32 H          -0.6519    2.6292   -4.0230 H       1  UNL1        0.0831
     33 H           0.0314    2.1281   -1.6682 H       1  UNL1        0.0654
@<TRIPOS>BOND
     1     1     2    1
     2     3     2    1
     3     3     4    1
     4     3     5    1
     5     5     6    1
     6     5     7    1
     7     7     8    1
     8     4     9    1
     9     7     9    1
    10     9    10    1
    11    10    11   ar
    12    11    12   ar
    13    12    13   ar
    14    13    14   ar
    15    14    15    1
    16    14    16   ar
    17    16    17   ar
    18    17    18   ar
    19    10    19   ar
    20    13    19   ar
    21    18    19   ar
    22     1    20    1
    23     2    21    1
    24     2    22    1
    25     3    23    1
    26     5    24    1
    27     6    25    1
    28     7    26    1
    29     8    27    1
    30     9    28    1
    31    11    29    1
    32    15    30    1
    33    15    31    1
    34    17    32    1
    35    18    33    1
