1R1H_BIR_A_2001
     RDKit          3D

 56 57  0  0  0  0  0  0  0  0999 V2000
   -5.5868   -3.2239   -0.2271 C   0  0  0  0  0  0  0  0  0  0  0  0
   -5.1654   -2.9379    1.2141 C   0  0  2  0  0  0  0  0  0  0  0  0
   -6.2988   -2.3989    1.9656 N   0  0  0  0  0  0  0  0  0  0  0  0
   -3.7473   -1.7806    1.2624 P   0  0  1  0  0  5  0  0  0  0  0  0
   -4.1333   -0.4840    0.5846 O   0  0  0  0  0  0  0  0  0  0  0  0
   -3.3492   -1.4769    2.8801 O   0  0  0  0  0  0  0  0  0  0  0  0
   -2.3129   -2.5303    0.4114 C   0  0  0  0  0  0  0  0  0  0  0  0
   -1.0286   -1.6919    0.5696 C   0  0  2  0  0  0  0  0  0  0  0  0
   -1.1675   -0.3452   -0.1039 C   0  0  0  0  0  0  0  0  0  0  0  0
   -1.1296    0.7000    0.6013 O   0  0  0  0  0  0  0  0  0  0  0  0
   -1.3412   -0.2473   -1.5266 N   0  0  0  0  0  0  0  0  0  0  0  0
   -1.5511    1.0380   -2.1965 C   0  0  1  0  0  0  0  0  0  0  0  0
   -1.1602    0.9411   -3.6731 C   0  0  0  0  0  0  0  0  0  0  0  0
   -2.9873    1.4533   -2.0606 C   0  0  0  0  0  0  0  0  0  0  0  0
   -3.2990    2.7101   -1.5511 O   0  0  0  0  0  0  0  0  0  0  0  0
   -3.9115    0.6709   -2.4130 O   0  0  0  0  0  0  0  0  0  0  0  0
    0.1896   -2.4674    0.0233 C   0  0  0  0  0  0  0  0  0  0  0  0
    1.4754   -1.7005    0.2097 C   0  0  0  0  0  0  0  0  0  0  0  0
    2.1066   -1.6739    1.4619 C   0  0  0  0  0  0  0  0  0  0  0  0
    3.2791   -0.9361    1.6467 C   0  0  0  0  0  0  0  0  0  0  0  0
    3.8396   -0.2075    0.5821 C   0  0  0  0  0  0  0  0  0  0  0  0
    3.1989   -0.2306   -0.6695 C   0  0  0  0  0  0  0  0  0  0  0  0
    2.0257   -0.9671   -0.8525 C   0  0  0  0  0  0  0  0  0  0  0  0
    5.0856    0.5764    0.7770 C   0  0  0  0  0  0  0  0  0  0  0  0
    6.0871    0.5850   -0.2124 C   0  0  0  0  0  0  0  0  0  0  0  0
    7.2595    1.3243   -0.0266 C   0  0  0  0  0  0  0  0  0  0  0  0
    7.4448    2.0625    1.1444 C   0  0  0  0  0  0  0  0  0  0  0  0
    6.4585    2.0625    2.1330 C   0  0  0  0  0  0  0  0  0  0  0  0
    5.2847    1.3237    1.9534 C   0  0  0  0  0  0  0  0  0  0  0  0
   -6.4619   -3.9082   -0.2346 H   0  0  0  0  0  0  0  0  0  0  0  0
   -4.7602   -3.7145   -0.7831 H   0  0  0  0  0  0  0  0  0  0  0  0
   -5.8660   -2.2825   -0.7476 H   0  0  0  0  0  0  0  0  0  0  0  0
   -4.8484   -3.8945    1.6828 H   0  0  0  0  0  0  0  0  0  0  0  0
   -6.0120   -2.2819    2.9644 H   0  0  0  0  0  0  0  0  0  0  0  0
   -6.5381   -1.4491    1.5969 H   0  0  0  0  0  0  0  0  0  0  0  0
   -2.8400   -0.6277    2.8659 H   0  0  0  0  0  0  0  0  0  0  0  0
   -2.1529   -3.5364    0.8547 H   0  0  0  0  0  0  0  0  0  0  0  0
   -2.5576   -2.6683   -0.6625 H   0  0  0  0  0  0  0  0  0  0  0  0
   -0.8573   -1.5338    1.6580 H   0  0  0  0  0  0  0  0  0  0  0  0
   -1.3935   -1.1251   -2.0909 H   0  0  0  0  0  0  0  0  0  0  0  0
   -0.8985    1.8088   -1.7290 H   0  0  0  0  0  0  0  0  0  0  0  0
   -1.7862    0.1877   -4.1989 H   0  0  0  0  0  0  0  0  0  0  0  0
   -1.2901    1.9273   -4.1686 H   0  0  0  0  0  0  0  0  0  0  0  0
   -0.0935    0.6420   -3.7601 H   0  0  0  0  0  0  0  0  0  0  0  0
   -4.2630    3.0048   -1.4504 H   0  0  0  0  0  0  0  0  0  0  0  0
    0.2765   -3.4387    0.5586 H   0  0  0  0  0  0  0  0  0  0  0  0
    0.0415   -2.7149   -1.0507 H   0  0  0  0  0  0  0  0  0  0  0  0
    1.6896   -2.2252    2.2957 H   0  0  0  0  0  0  0  0  0  0  0  0
    3.7557   -0.9478    2.6188 H   0  0  0  0  0  0  0  0  0  0  0  0
    3.5939    0.3379   -1.5021 H   0  0  0  0  0  0  0  0  0  0  0  0
    1.5423   -0.9588   -1.8216 H   0  0  0  0  0  0  0  0  0  0  0  0
    5.9715    0.0065   -1.1206 H   0  0  0  0  0  0  0  0  0  0  0  0
    8.0264    1.3220   -0.7905 H   0  0  0  0  0  0  0  0  0  0  0  0
    8.3529    2.6346    1.2854 H   0  0  0  0  0  0  0  0  0  0  0  0
    6.6014    2.6382    3.0385 H   0  0  0  0  0  0  0  0  0  0  0  0
    4.5260    1.3512    2.7254 H   0  0  0  0  0  0  0  0  0  0  0  0
  2  1  1  0
  2  3  1  0
  2  4  1  0
  4  5  2  0
  4  6  1  1
  4  7  1  0
  8  7  1  0
  8  9  1  0
  9 10  2  0
  9 11  1  0
 11 12  1  0
 12 13  1  0
 12 14  1  0
 14 15  1  0
 14 16  2  0
  8 17  1  0
 17 18  1  0
 18 19  2  0
 19 20  1  0
 20 21  2  0
 21 22  1  0
 18 23  1  0
 22 23  2  0
 21 24  1  0
 24 25  2  0
 25 26  1  0
 26 27  2  0
 27 28  1  0
 24 29  1  0
 28 29  2  0
  1 30  1  0
  1 31  1  0
  1 32  1  0
  2 33  1  1
  3 34  1  0
  3 35  1  0
  6 36  1  0
  7 37  1  0
  7 38  1  0
  8 39  1  1
 11 40  1  0
 12 41  1  1
 13 42  1  0
 13 43  1  0
 13 44  1  0
 15 45  1  0
 17 46  1  0
 17 47  1  0
 19 48  1  0
 20 49  1  0
 22 50  1  0
 23 51  1  0
 25 52  1  0
 26 53  1  0
 27 54  1  0
 28 55  1  0
 29 56  1  0
M  END
