1R1H_BIR_A_2001
     RDKit          3D

 56 57  0  0  0  0  0  0  0  0999 V2000
   29.7908   46.5150   31.6307 C   0  0  0  0  0  0  0  0  0  0  0  0
   28.8431   45.3351   31.3854 C   0  0  1  0  0  0  0  0  0  0  0  0
   28.4411   45.3134   29.9852 N   0  0  0  0  0  0  0  0  0  0  0  0
   29.6218   43.8656   31.8843 P   0  0  2  0  0  5  0  0  0  0  0  0
   30.1899   43.3237   30.6107 O   0  0  0  0  0  0  0  0  0  0  0  0
   28.6596   42.9963   32.6400 O   0  0  0  0  0  0  0  0  0  0  0  0
   30.9369   44.2986   32.9280 C   0  0  0  0  0  0  0  0  0  0  0  0
   30.5676   45.2718   34.0572 C   0  0  1  0  0  0  0  0  0  0  0  0
   30.9000   44.6901   35.4071 C   0  0  0  0  0  0  0  0  0  0  0  0
   32.0113   44.8194   35.8965 O   0  0  0  0  0  0  0  0  0  0  0  0
   29.9394   44.0496   36.0599 N   0  0  0  0  0  0  0  0  0  0  0  0
   29.9475   42.5963   36.0307 C   0  0  2  0  0  0  0  0  0  0  0  0
   30.4208   42.0960   34.6680 C   0  0  0  0  0  0  0  0  0  0  0  0
   28.5922   42.0506   36.3168 C   0  0  0  0  0  0  0  0  0  0  0  0
   27.8265   41.7958   35.3844 O   0  0  0  0  0  0  0  0  0  0  0  0
   28.2657   41.8722   37.4801 O   0  0  0  0  0  0  0  0  0  0  0  0
   31.3199   46.5944   33.8469 C   0  0  0  0  0  0  0  0  0  0  0  0
   32.6303   46.6045   34.5811 C   0  0  0  0  0  0  0  0  0  0  0  0
   33.7639   47.1510   33.9837 C   0  0  0  0  0  0  0  0  0  0  0  0
   34.9819   47.1463   34.6552 C   0  0  0  0  0  0  0  0  0  0  0  0
   35.0875   46.5887   35.9360 C   0  0  0  0  0  0  0  0  0  0  0  0
   33.9423   46.0465   36.5306 C   0  0  0  0  0  0  0  0  0  0  0  0
   32.7252   46.0557   35.8593 C   0  0  0  0  0  0  0  0  0  0  0  0
   36.3755   46.5642   36.6392 C   0  0  0  0  0  0  0  0  0  0  0  0
   36.7141   47.5848   37.5365 C   0  0  0  0  0  0  0  0  0  0  0  0
   37.9327   47.5623   38.2092 C   0  0  0  0  0  0  0  0  0  0  0  0
   38.8311   46.5207   37.9907 C   0  0  0  0  0  0  0  0  0  0  0  0
   38.5051   45.5005   37.0993 C   0  0  0  0  0  0  0  0  0  0  0  0
   37.2855   45.5212   36.4303 C   0  0  0  0  0  0  0  0  0  0  0  0
   29.3156   47.4236   31.3248 H   0  0  0  0  0  0  0  0  0  0  0  0
   30.0293   46.5703   32.6722 H   0  0  0  0  0  0  0  0  0  0  0  0
   30.6888   46.3745   31.0662 H   0  0  0  0  0  0  0  0  0  0  0  0
   27.9500   45.4387   31.9656 H   0  0  0  0  0  0  0  0  0  0  0  0
   29.2677   45.2154   29.3957 H   0  0  0  0  0  0  0  0  0  0  0  0
   27.8131   44.5260   29.8239 H   0  0  0  0  0  0  0  0  0  0  0  0
   27.9215   42.7511   32.0603 H   0  0  0  0  0  0  0  0  0  0  0  0
   31.3188   43.4030   33.3717 H   0  0  0  0  0  0  0  0  0  0  0  0
   31.6540   44.8046   32.3160 H   0  0  0  0  0  0  0  0  0  0  0  0
   29.5125   45.4478   34.0310 H   0  0  0  0  0  0  0  0  0  0  0  0
   29.2423   44.5433   36.5493 H   0  0  0  0  0  0  0  0  0  0  0  0
   30.6223   42.2560   36.7881 H   0  0  0  0  0  0  0  0  0  0  0  0
   29.7468   42.4356   33.9097 H   0  0  0  0  0  0  0  0  0  0  0  0
   31.4014   42.4755   34.4697 H   0  0  0  0  0  0  0  0  0  0  0  0
   30.4459   41.0262   34.6699 H   0  0  0  0  0  0  0  0  0  0  0  0
   28.1004   41.9413   34.5002 H   0  0  0  0  0  0  0  0  0  0  0  0
   31.5060   46.7264   32.8014 H   0  0  0  0  0  0  0  0  0  0  0  0
   30.7146   47.3896   34.2291 H   0  0  0  0  0  0  0  0  0  0  0  0
   33.6997   47.5611   33.0389 H   0  0  0  0  0  0  0  0  0  0  0  0
   35.8153   47.5571   34.2059 H   0  0  0  0  0  0  0  0  0  0  0  0
   34.0022   45.6362   37.4757 H   0  0  0  0  0  0  0  0  0  0  0  0
   31.8876   45.6543   36.3093 H   0  0  0  0  0  0  0  0  0  0  0  0
   36.0539   48.3608   37.7006 H   0  0  0  0  0  0  0  0  0  0  0  0
   38.1706   48.3182   38.8703 H   0  0  0  0  0  0  0  0  0  0  0  0
   39.7355   46.5044   38.4876 H   0  0  0  0  0  0  0  0  0  0  0  0
   39.1696   44.7281   36.9350 H   0  0  0  0  0  0  0  0  0  0  0  0
   37.0493   44.7607   35.7740 H   0  0  0  0  0  0  0  0  0  0  0  0
  2  1  1  0
  2  3  1  0
  2  4  1  0
  4  5  2  0
  4  6  1  6
  4  7  1  0
  8  7  1  0
  8  9  1  0
  9 10  2  0
  9 11  1  0
 11 12  1  0
 12 13  1  0
 12 14  1  0
 14 15  1  0
 14 16  2  0
  8 17  1  0
 17 18  1  0
 18 19  2  0
 19 20  1  0
 20 21  2  0
 21 22  1  0
 18 23  1  0
 22 23  2  0
 21 24  1  0
 24 25  2  0
 25 26  1  0
 26 27  2  0
 27 28  1  0
 24 29  1  0
 28 29  2  0
  1 30  1  0
  1 31  1  0
  1 32  1  0
  2 33  1  6
  3 34  1  0
  3 35  1  0
  6 36  1  0
  7 37  1  0
  7 38  1  0
  8 39  1  6
 11 40  1  0
 12 41  1  6
 13 42  1  0
 13 43  1  0
 13 44  1  0
 15 45  1  0
 17 46  1  0
 17 47  1  0
 19 48  1  0
 20 49  1  0
 22 50  1  0
 23 51  1  0
 25 52  1  0
 26 53  1  0
 27 54  1  0
 28 55  1  0
 29 56  1  0
M  END
