@<TRIPOS>MOLECULE
1R1H_BIR_A_2001
 56 57 0 0 0
SMALL
GASTEIGER

@<TRIPOS>ATOM
      1 C          -5.5868   -3.2239   -0.2271 C.3     0  UNK0       -0.0409
      2 C          -5.1654   -2.9379    1.2141 C.3     0  UNK0        0.0796
      3 N          -6.2988   -2.3989    1.9656 N.3     0  UNK0       -0.3198
      4 P          -3.7473   -1.7806    1.2624 P.3     0  UNK0        0.2188
      5 O          -4.1333   -0.4840    0.5846 O.2     0  UNK0       -0.2894
      6 O          -3.3492   -1.4769    2.8801 O.3     0  UNK0       -0.3426
      7 C          -2.3129   -2.5303    0.4114 C.3     0  UNK0        0.0371
      8 C          -1.0286   -1.6919    0.5696 C.3     0  UNK0        0.0482
      9 C          -1.1675   -0.3452   -0.1039 C.2     0  UNK0        0.2176
     10 O          -1.1296    0.7000    0.6013 O.2     0  UNK0       -0.2755
     11 N          -1.3412   -0.2473   -1.5266 N.am    1  ALA1       -0.3023
     12 CA         -1.5511    1.0380   -2.1965 C.3     1  ALA1        0.1174
     13 CB         -1.1602    0.9411   -3.6731 C.3     1  ALA1       -0.0362
     14 C          -2.9873    1.4533   -2.0606 C.2     1  ALA1        0.3250
     15 O          -3.2990    2.7101   -1.5511 O.3     1  ALA1       -0.4793
     16 OXT        -3.9115    0.6709   -2.4130 O.2     1  ALA1       -0.2489
     17 C           0.1896   -2.4674    0.0233 C.3     0  UNK0       -0.0161
     18 C           1.4754   -1.7005    0.2097 C.ar    0  UNK0       -0.0466
     19 C           2.1066   -1.6739    1.4619 C.ar    0  UNK0       -0.0580
     20 C           3.2791   -0.9361    1.6467 C.ar    0  UNK0       -0.0538
     21 C           3.8396   -0.2075    0.5821 C.ar    0  UNK0       -0.0179
     22 C           3.1989   -0.2306   -0.6695 C.ar    0  UNK0       -0.0538
     23 C           2.0257   -0.9671   -0.8525 C.ar    0  UNK0       -0.0580
     24 C           5.0856    0.5764    0.7770 C.ar    0  UNK0       -0.0179
     25 C           6.0871    0.5850   -0.2124 C.ar    0  UNK0       -0.0540
     26 C           7.2595    1.3243   -0.0266 C.ar    0  UNK0       -0.0612
     27 C           7.4448    2.0625    1.1444 C.ar    0  UNK0       -0.0617
     28 C           6.4585    2.0625    2.1330 C.ar    0  UNK0       -0.0612
     29 C           5.2847    1.3237    1.9534 C.ar    0  UNK0       -0.0540
     30 H          -6.4619   -3.9082   -0.2346 H       0  UNK0        0.0250
     31 H          -4.7602   -3.7145   -0.7831 H       0  UNK0        0.0250
     32 H          -5.8660   -2.2825   -0.7476 H       0  UNK0        0.0250
     33 H          -4.8484   -3.8945    1.6828 H       0  UNK0        0.0557
     34 H          -6.0120   -2.2819    2.9644 H       0  UNK0        0.1189
     35 H          -6.5381   -1.4491    1.5969 H       0  UNK0        0.1189
     36 H          -2.8400   -0.6277    2.8659 H       0  UNK0        0.2177
     37 H          -2.1529   -3.5364    0.8547 H       0  UNK0        0.0372
     38 H          -2.5576   -2.6683   -0.6625 H       0  UNK0        0.0372
     39 H          -0.8573   -1.5338    1.6580 H       0  UNK0        0.0402
     40 H          -1.3935   -1.1251   -2.0909 H       1  ALA1        0.1495
     41 HA         -0.8985    1.8088   -1.7290 H       1  ALA1        0.0611
     42 HB1        -1.7862    0.1877   -4.1989 H       1  ALA1        0.0253
     43 HB2        -1.2901    1.9273   -4.1686 H       1  ALA1        0.0253
     44 HB3        -0.0935    0.6420   -3.7601 H       1  ALA1        0.0253
     45 H          -4.2630    3.0048   -1.4504 H       1  ALA1        0.2951
     46 H           0.2765   -3.4387    0.5586 H       0  UNK0        0.0321
     47 H           0.0415   -2.7149   -1.0507 H       0  UNK0        0.0321
     48 H           1.6896   -2.2252    2.2957 H       0  UNK0        0.0620
     49 H           3.7557   -0.9478    2.6188 H       0  UNK0        0.0624
     50 H           3.5939    0.3379   -1.5021 H       0  UNK0        0.0624
     51 H           1.5423   -0.9588   -1.8216 H       0  UNK0        0.0620
     52 H           5.9715    0.0065   -1.1206 H       0  UNK0        0.0624
     53 H           8.0264    1.3220   -0.7905 H       0  UNK0        0.0618
     54 H           8.3529    2.6346    1.2854 H       0  UNK0        0.0618
     55 H           6.6014    2.6382    3.0385 H       0  UNK0        0.0618
     56 H           4.5260    1.3512    2.7254 H       0  UNK0        0.0624
@<TRIPOS>BOND
     1     2     1    1
     2     2     3    1
     3     2     4    1
     4     4     5    2
     5     4     6    1
     6     4     7    1
     7     8     7    1
     8     8     9    1
     9     9    10    2
    10     9    11   am
    11    11    12    1
    12    12    13    1
    13    12    14    1
    14    14    15    1
    15    14    16    2
    16     8    17    1
    17    17    18    1
    18    18    19   ar
    19    19    20   ar
    20    20    21   ar
    21    21    22   ar
    22    18    23   ar
    23    22    23   ar
    24    21    24    1
    25    24    25   ar
    26    25    26   ar
    27    26    27   ar
    28    27    28   ar
    29    24    29   ar
    30    28    29   ar
    31     1    30    1
    32     1    31    1
    33     1    32    1
    34     2    33    1
    35     3    34    1
    36     3    35    1
    37     6    36    1
    38     7    37    1
    39     7    38    1
    40     8    39    1
    41    11    40    1
    42    12    41    1
    43    13    42    1
    44    13    43    1
    45    13    44    1
    46    15    45    1
    47    17    46    1
    48    17    47    1
    49    19    48    1
    50    20    49    1
    51    22    50    1
    52    23    51    1
    53    25    52    1
    54    26    53    1
    55    27    54    1
    56    28    55    1
    57    29    56    1
