7MSR_DCA_A_401
     RDKit          3D

 47 49  0  0  0  0  0  0  0  0999 V2000
  -25.4546  -19.0000   -2.4908 N   0  0  0  0  0  0  0  0  0  0  0  0
  -26.5763  -18.4517   -2.9917 C   0  0  0  0  0  0  0  0  0  0  0  0
  -26.8193  -17.1394   -2.8199 N   0  0  0  0  0  0  0  0  0  0  0  0
  -25.9691  -16.3498   -2.1573 C   0  0  0  0  0  0  0  0  0  0  0  0
  -24.8060  -16.8714   -1.6270 C   0  0  0  0  0  0  0  0  0  0  0  0
  -24.5662  -18.2272   -1.8108 C   0  0  0  0  0  0  0  0  0  0  0  0
  -23.3797  -18.8166   -1.2832 N   0  0  0  0  0  0  0  0  0  0  0  0
  -24.1282  -15.8685   -1.0111 N   0  0  0  0  0  0  0  0  0  0  0  0
  -24.8650  -14.7621   -1.1648 C   0  0  0  0  0  0  0  0  0  0  0  0
  -25.9943  -15.0280   -1.8611 N   0  0  0  0  0  0  0  0  0  0  0  0
  -27.0480  -14.1263   -2.2408 C   0  0  1  0  0  0  0  0  0  0  0  0
  -27.4525  -13.2074   -1.1066 C   0  0  2  0  0  0  0  0  0  0  0  0
  -28.1752  -13.8435   -0.1097 O   0  0  0  0  0  0  0  0  0  0  0  0
  -28.2953  -12.2123   -1.8793 C   0  0  2  0  0  0  0  0  0  0  0  0
  -29.5057  -12.7449   -2.2644 O   0  0  0  0  0  0  0  0  0  0  0  0
  -30.6570  -11.5650   -2.6213 P   0  0  2  0  0  5  0  0  0  0  0  0
  -30.0868  -10.5333   -3.5991 O   0  0  0  0  0  0  0  0  0  0  0  0
  -30.9773  -10.7173   -1.1912 O   0  0  0  0  0  0  0  0  0  0  0  0
  -32.1027  -12.1989   -3.1698 O   0  0  0  0  0  0  0  0  0  0  0  0
  -27.4391  -12.1037   -3.1424 C   0  0  2  0  0  0  0  0  0  0  0  0
  -26.6672  -13.2280   -3.2217 O   0  0  0  0  0  0  0  0  0  0  0  0
  -26.5856  -10.8547   -3.0165 C   0  0  0  0  0  0  0  0  0  0  0  0
  -25.9121  -10.8487   -1.8175 O   0  0  0  0  0  0  0  0  0  0  0  0
  -24.2404  -10.7155   -2.0059 P   0  0  2  0  0  5  0  0  0  0  0  0
  -23.6261  -11.1262   -0.6868 O   0  0  0  0  0  0  0  0  0  0  0  0
  -23.7989   -9.1135   -2.2909 O   0  0  0  0  0  0  0  0  0  0  0  0
  -23.6455  -11.7157   -3.2099 O   0  0  0  0  0  0  0  0  0  0  0  0
  -22.2924  -11.0763   -3.9686 P   0  0  2  0  0  5  0  0  0  0  0  0
  -22.1826  -11.7736   -5.3217 O   0  0  0  0  0  0  0  0  0  0  0  0
  -20.9146  -11.3576   -3.0519 O   0  0  0  0  0  0  0  0  0  0  0  0
  -22.5554   -9.4383   -4.2846 O   0  0  0  0  0  0  0  0  0  0  0  0
  -21.9857   -7.4853   -5.4507 C   0  0  1  0  0  0  0  0  0  0  0  0
  -21.5735   -8.8801   -5.0766 C   0  0  0  0  0  0  0  0  0  0  0  0
  -23.1964   -7.5629   -6.3349 C   0  0  0  0  0  0  0  0  0  0  0  0
  -22.3773   -6.7610   -4.1925 C   0  0  0  0  0  0  0  0  0  0  0  0
  -20.8772   -6.7399   -6.1695 C   0  0  1  0  0  0  0  0  0  0  0  0
  -20.5890   -7.4039   -7.3646 O   0  0  0  0  0  0  0  0  0  0  0  0
  -21.2532   -5.3493   -6.4626 C   0  0  0  0  0  0  0  0  0  0  0  0
  -22.4042   -4.8842   -6.2280 O   0  0  0  0  0  0  0  0  0  0  0  0
  -20.3128   -4.4461   -7.0374 N   0  0  0  0  0  0  0  0  0  0  0  0
  -20.5705   -3.8513   -8.3381 C   0  0  0  0  0  0  0  0  0  0  0  0
  -20.2997   -4.9157   -9.3714 C   0  0  0  0  0  0  0  0  0  0  0  0
  -19.0396   -4.5217  -10.0865 C   0  0  0  0  0  0  0  0  0  0  0  0
  -18.4716   -3.4129   -9.8481 O   0  0  0  0  0  0  0  0  0  0  0  0
  -18.4989   -5.4311  -11.0428 N   0  0  0  0  0  0  0  0  0  0  0  0
  -17.2908   -5.0628  -11.7619 C   0  0  0  0  0  0  0  0  0  0  0  0
  -16.9716   -6.2142  -12.7065 C   0  0  0  0  0  0  0  0  0  0  0  0
  1  2  2  0
  2  3  1  0
  3  4  2  0
  4  5  1  0
  1  6  1  0
  5  6  2  0
  6  7  1  0
  5  8  1  0
  8  9  2  0
  4 10  1  0
  9 10  1  0
 11 10  1  1
 11 12  1  0
 12 13  1  1
 12 14  1  0
 14 15  1  6
 15 16  1  0
 16 17  2  0
 16 18  1  1
 16 19  1  0
 14 20  1  0
 11 21  1  0
 20 21  1  1
 20 22  1  0
 22 23  1  6
 24 23  1  0
 24 25  2  0
 24 26  1  6
 24 27  1  0
 28 27  1  0
 28 29  2  0
 28 30  1  1
 28 31  1  0
 33 31  1  1
 32 33  1  0
 32 34  1  6
 35 32  1  6
 32 36  1  0
 36 37  1  6
 36 38  1  0
 38 39  2  0
 38 40  1  0
 41 40  1  1
 41 42  1  0
 42 43  1  1
 43 44  2  0
 43 45  1  0
 46 45  1  1
 47 46  1  1
M  END
$$$$
