
     RDKit          3D

 18 19  0  0  0  0  0  0  0  0999 V2000
   38.8123  -41.8041   11.1897 C   0  0  0  0  0  0  0  0  0  0  0  0
   39.6911  -40.7658   11.5125 C   0  0  0  0  0  0  0  0  0  0  0  0
   39.1931  -39.5491   11.9932 C   0  0  0  0  0  0  0  0  0  0  0  0
   37.8132  -39.3434   12.1622 C   0  0  0  0  0  0  0  0  0  0  0  0
   37.2935  -38.0616   12.6685 C   0  0  0  0  0  0  0  0  0  0  0  0
   37.3568  -35.6213   12.7267 C   0  0  0  0  0  0  0  0  0  0  0  0
   36.3004  -35.6018   13.6358 C   0  0  0  0  0  0  0  0  0  0  0  0
   34.6067  -36.8391   15.0332 C   0  0  0  0  0  0  0  0  0  0  0  0
   39.2892  -43.1109   10.6764 C   0  0  0  0  0  0  0  0  0  0  0  0
   39.2848  -44.1626   11.2888 O   0  0  0  0  0  0  0  0  0  0  0  0
   35.7320  -36.8040   14.0684 C   0  0  0  0  0  0  0  0  0  0  0  0
   36.2288  -38.0235   13.5849 C   0  0  0  0  0  0  0  0  0  0  0  0
   36.9445  -40.3980   11.8342 C   0  0  0  0  0  0  0  0  0  0  0  0
   37.4364  -41.6160   11.3523 C   0  0  0  0  0  0  0  0  0  0  0  0
   37.8469  -36.8397   12.2493 C   0  0  0  0  0  0  0  0  0  0  0  0
   39.7505  -43.0401    9.4151 O   0  0  0  0  0  0  0  0  0  0  0  0
   33.8889  -37.7960   15.2573 O   0  0  0  0  0  0  0  0  0  0  0  0
   34.4311  -35.6705   15.6751 O   0  0  0  0  0  0  0  0  0  0  0  0
  1  2  4  0
  2  3  4  0
  3  4  4  0
  4  5  1  0
  6  7  4  0
  1  9  1  0
  9 10  2  0
  7 11  4  0
  8 11  1  0
  5 12  4  0
 11 12  4  0
  4 13  4  0
  1 14  4  0
 13 14  4  0
  5 15  4  0
  6 15  4  0
  9 16  1  0
  8 17  2  0
  8 18  1  0
M  END
