7AN5_RDH_A_301
     RDKit          3D

 15 15  0  0  0  0  0  0  0  0999 V2000
   26.4157   11.0499   14.9458 C   0  0  0  0  0  0  0  0  0  0  0  0
   27.6639   11.4344   14.7296 C   0  0  0  0  0  0  0  0  0  0  0  0
   28.9056   11.9775   12.7770 C   0  0  0  0  0  0  0  0  0  0  0  0
   28.2871   12.3873   11.5955 C   0  0  0  0  0  0  0  0  0  0  0  0
   28.8492   13.3341   10.7732 C   0  0  0  0  0  0  0  0  0  0  0  0
   30.0595   13.8679   11.1655 C   0  0  0  0  0  0  0  0  0  0  0  0
   30.7064   13.4883   12.3308 C   0  0  0  0  0  0  0  0  0  0  0  0
   31.9915   14.0809   12.7103 C   0  0  0  0  0  0  0  0  0  0  0  0
   30.1206   12.5311   13.1453 C   0  0  0  0  0  0  0  0  0  0  0  0
   28.4112   12.2798   15.6560 C   0  0  0  0  0  0  0  0  0  0  0  0
   28.2692   11.0041   13.5664 O   0  0  0  0  0  0  0  0  0  0  0  0
   32.0802   15.4630   12.8026 O   0  0  0  0  0  0  0  0  0  0  0  0
   33.0045   13.3749   12.9517 O   0  0  0  0  0  0  0  0  0  0  0  0
   29.3637   11.8174   16.3577 O   0  0  0  0  0  0  0  0  0  0  0  0
   28.1090   13.6254   15.8062 O   0  0  0  0  0  0  0  0  0  0  0  0
  1  2  2  0
  3  4  2  0
  4  5  1  0
  5  6  2  0
  6  7  1  0
  7  8  1  0
  3  9  1  0
  7  9  2  0
  2 10  1  0
  2 11  1  0
  3 11  1  0
  8 12  1  0
  8 13  2  0
 10 14  2  0
 10 15  1  0
M  END
$$$$
