1R58_AO5_A_501
     RDKit          3D

 23 23  0  0  0  0  0  0  0  0999 V2000
   17.3611   27.3422   25.3747 C   0  0  2  0  0  0  0  0  0  0  0  0
   18.6974   26.6036   25.4577 C   0  0  0  0  0  0  0  0  0  0  0  0
   16.2164   26.3753   25.6366 C   0  0  0  0  0  0  0  0  0  0  0  0
   17.1291   28.1194   23.8009 S   0  0  0  0  0  0  0  0  0  0  0  0
   17.3716   26.7630   22.6551 C   0  0  0  0  0  0  0  0  0  0  0  0
   17.1853   27.1770   21.2031 C   0  0  0  0  0  0  0  0  0  0  0  0
   18.3640   26.6982   20.3646 C   0  0  1  0  0  0  0  0  0  0  0  0
   18.2862   25.2630   20.6945 N   0  0  0  0  0  0  0  0  0  0  0  0
   18.1420   26.9797   18.8269 C   0  0  2  0  0  0  0  0  0  0  0  0
   18.4844   25.8467   18.0367 O   0  0  0  0  0  0  0  0  0  0  0  0
   18.9987   28.1454   18.3838 C   0  0  0  0  0  0  0  0  0  0  0  0
   20.2117   28.0918   18.3045 O   0  0  0  0  0  0  0  0  0  0  0  0
   18.1939   29.3593   18.1031 N   0  0  0  0  0  0  0  0  0  0  0  0
   17.8174   29.7366   16.7386 N   0  0  0  0  0  0  0  0  0  0  0  0
   18.7532   30.0253   15.7744 C   0  0  0  0  0  0  0  0  0  0  0  0
   19.9550   30.0844   16.1074 O   0  0  0  0  0  0  0  0  0  0  0  0
   18.3337   30.2553   14.3533 C   0  0  0  0  0  0  0  0  0  0  0  0
   19.2152   30.7564   13.2459 C   0  0  0  0  0  0  0  0  0  0  0  0
   18.6412   30.9341   11.8780 C   0  0  0  0  0  0  0  0  0  0  0  0
   17.2067   30.6219   11.6079 C   0  0  0  0  0  0  0  0  0  0  0  0
   16.3659   30.1331   12.7157 C   0  0  0  0  0  0  0  0  0  0  0  0
   16.8999   29.9504   14.0516 C   0  0  0  0  0  0  0  0  0  0  0  0
   14.7131   29.7583   12.4830 Cl  0  0  0  0  0  0  0  0  0  0  0  0
  1  2  1  6
  1  3  1  0
  1  4  1  0
  4  5  1  0
  5  6  1  0
  6  7  1  0
  7  8  1  6
  7  9  1  0
  9 10  1  6
  9 11  1  0
 11 12  2  0
 11 13  1  0
 13 14  1  0
 14 15  1  0
 15 16  2  0
 15 17  1  0
 17 18  2  0
 18 19  1  0
 19 20  2  0
 20 21  1  0
 17 22  1  0
 21 22  2  0
 21 23  1  0
M  END
