
     RDKit          3D

  9  8  0  0  0  0  0  0  0  0999 V2000
   36.5575   34.4855  115.2039 P   0  0  0  0  0  5  0  0  0  0  0  0
   37.0611   35.8074  114.4616 O   0  0  0  0  0  0  0  0  0  0  0  0
   35.2095   33.9597  114.8610 O   0  0  0  0  0  0  0  0  0  0  0  0
   36.7516   34.8211  116.7512 O   0  0  0  0  0  0  0  0  0  0  0  0
   37.7473   33.4550  114.9477 O   0  0  0  0  0  0  0  0  0  0  0  0
   37.7678   35.6142  113.2543 C   0  0  0  0  0  0  0  0  0  0  0  0
   38.8668   36.6334  113.0052 C   0  0  0  0  0  0  0  0  0  0  0  0
   39.1891   37.5355  113.7619 O   0  0  0  0  0  0  0  0  0  0  0  0
   39.5360   36.4344  111.8506 O   0  0  0  0  0  0  0  0  0  0  0  0
  1  2  1  0
  1  3  2  0
  1  4  1  0
  1  5  1  0
  2  6  1  0
  6  7  1  0
  7  8  2  0
  7  9  1  0
M  END
