1J3J_CP6_A_609
     RDKit          3D

 30 31  0  0  0  0  0  0  0  0999 V2000
    5.6801   -3.6373   -0.1675 N   0  0  0  0  0  0  0  0  0  0  0  0
    5.0619   -2.6744    0.5606 C   0  0  0  0  0  0  0  0  0  0  0  0
    5.5744   -3.6819   -1.5211 C   0  0  0  0  0  0  0  0  0  0  0  0
    4.8067   -2.7065   -2.1923 C   0  0  0  0  0  0  0  0  0  0  0  0
    4.1791   -1.7056   -1.4154 C   0  0  0  0  0  0  0  0  0  0  0  0
    4.3188   -1.7266   -0.0634 N   0  0  0  0  0  0  0  0  0  0  0  0
    4.6601   -2.7422   -3.6623 C   0  0  0  0  0  0  0  0  0  0  0  0
    5.6664   -2.2120   -4.4836 C   0  0  0  0  0  0  0  0  0  0  0  0
    5.5244   -2.2388   -5.8742 C   0  0  0  0  0  0  0  0  0  0  0  0
    4.3749   -2.7898   -6.4511 C   0  0  0  0  0  0  0  0  0  0  0  0
    3.3656   -3.3124   -5.6350 C   0  0  0  0  0  0  0  0  0  0  0  0
    3.5054   -3.2867   -4.2441 C   0  0  0  0  0  0  0  0  0  0  0  0
    6.2602   -4.7186   -2.2319 N   0  0  0  0  0  0  0  0  0  0  0  0
    5.1899   -2.6605    1.9803 N   0  0  0  0  0  0  0  0  0  0  0  0
    3.2926   -0.6464   -2.0198 C   0  0  0  0  0  0  0  0  0  0  0  0
    2.3161   -0.0990   -0.9842 C   0  0  0  0  0  0  0  0  0  0  0  0
    4.1980   -2.8229   -8.1959 Cl  0  0  0  0  0  0  0  0  0  0  0  0
    6.5594   -1.7824   -4.0461 H   0  0  0  0  0  0  0  0  0  0  0  0
    6.3068   -1.8311   -6.5013 H   0  0  0  0  0  0  0  0  0  0  0  0
    2.4732   -3.7373   -6.0769 H   0  0  0  0  0  0  0  0  0  0  0  0
    2.7176   -3.6914   -3.6206 H   0  0  0  0  0  0  0  0  0  0  0  0
    6.2486   -4.7822   -3.2734 H   0  0  0  0  0  0  0  0  0  0  0  0
    6.8111   -5.4323   -1.7051 H   0  0  0  0  0  0  0  0  0  0  0  0
    4.7153   -1.9227    2.5467 H   0  0  0  0  0  0  0  0  0  0  0  0
    5.7594   -3.3879    2.4669 H   0  0  0  0  0  0  0  0  0  0  0  0
    3.9221    0.1896   -2.3946 H   0  0  0  0  0  0  0  0  0  0  0  0
    2.7311   -1.0412   -2.8916 H   0  0  0  0  0  0  0  0  0  0  0  0
    1.6462   -0.9041   -0.6165 H   0  0  0  0  0  0  0  0  0  0  0  0
    2.8698    0.3366   -0.1251 H   0  0  0  0  0  0  0  0  0  0  0  0
    1.6931    0.6960   -1.4452 H   0  0  0  0  0  0  0  0  0  0  0  0
  1  2  4  0
  1  3  4  0
  3  4  4  0
  4  5  4  0
  2  6  4  0
  5  6  4  0
  4  7  1  0
  7  8  4  0
  8  9  4  0
  9 10  4  0
 10 11  4  0
  7 12  4  0
 11 12  4  0
  3 13  1  0
  2 14  1  0
  5 15  1  0
 15 16  1  0
 10 17  1  0
  8 18  1  0
  9 19  1  0
 11 20  1  0
 12 21  1  0
 13 22  1  0
 13 23  1  0
 14 24  1  0
 14 25  1  0
 15 26  1  0
 15 27  1  0
 16 28  1  0
 16 29  1  0
 16 30  1  0
M  END
