1MZC_BNE_B_1003
     RDKit          3D

 35 38  0  0  0  0  0  0  0  0999 V2000
   15.3070  134.8617   -2.9684 C   0  0  1  0  0  0  0  0  0  0  0  0
   15.6255  133.7738   -2.0072 C   0  0  0  0  0  0  0  0  0  0  0  0
   16.5773  135.5200   -3.3441 C   0  0  0  0  0  0  0  0  0  0  0  0
   14.5439  134.2911   -4.1167 C   0  0  0  0  0  0  0  0  0  0  0  0
   14.3946  135.8349   -2.2327 C   0  0  0  0  0  0  0  0  0  0  0  0
   16.4866  133.9690   -0.9292 C   0  0  0  0  0  0  0  0  0  0  0  0
   15.0945  132.5053   -2.1492 C   0  0  0  0  0  0  0  0  0  0  0  0
   16.6852  136.6209   -4.2552 N   0  0  0  0  0  0  0  0  0  0  0  0
   17.6613  135.1162   -2.8528 O   0  0  0  0  0  0  0  0  0  0  0  0
   14.1532  135.3215   -5.1469 C   0  0  0  0  0  0  0  0  0  0  0  0
   14.7894  135.9982   -0.7976 C   0  0  0  0  0  0  0  0  0  0  0  0
   16.8165  132.9926   -0.0374 C   0  0  0  0  0  0  0  0  0  0  0  0
   15.3888  131.4677   -1.2788 C   0  0  0  0  0  0  0  0  0  0  0  0
   15.8290  137.0500   -5.3333 C   0  0  0  0  0  0  0  0  0  0  0  0
   17.8742  137.4651   -4.0647 C   0  0  0  0  0  0  0  0  0  0  0  0
   15.2885  135.7792   -6.0020 C   0  0  0  0  0  0  0  0  0  0  0  0
   17.6539  133.1217    1.0416 O   0  0  0  0  0  0  0  0  0  0  0  0
   16.2473  131.7336   -0.2367 C   0  0  0  0  0  0  0  0  0  0  0  0
   18.1865  134.3095    1.4580 C   0  0  0  0  0  0  0  0  0  0  0  0
   19.0829  134.5122    2.4609 C   0  0  0  0  0  0  0  0  0  0  0  0
   17.7585  135.4573    0.7703 C   0  0  0  0  0  0  0  0  0  0  0  0
   19.5695  135.7667    2.8129 C   0  0  0  0  0  0  0  0  0  0  0  0
   19.5668  133.4031    3.2178 C   0  0  0  0  0  0  0  0  0  0  0  0
   18.2299  136.7137    1.1046 C   0  0  0  0  0  0  0  0  0  0  0  0
   19.1396  136.8688    2.1305 C   0  0  0  0  0  0  0  0  0  0  0  0
   19.9371  132.5053    3.8299 N   0  0  0  0  0  0  0  0  0  0  0  0
   17.6976  137.8568    0.3115 C   0  0  2  0  0  0  0  0  0  0  0  0
   16.4597  138.4322    0.8198 C   0  0  0  0  0  0  0  0  0  0  0  0
   17.6870  137.4661   -1.1427 C   0  0  0  0  0  0  0  0  0  0  0  0
   18.7293  138.9024    0.3774 N   0  0  0  0  0  0  0  0  0  0  0  0
   15.8948  139.6524    0.5910 N   0  0  0  0  0  0  0  0  0  0  0  0
   15.5747  137.7770    1.6885 C   0  0  0  0  0  0  0  0  0  0  0  0
   14.7325  139.7081    1.2938 C   0  0  0  0  0  0  0  0  0  0  0  0
   16.4395  140.6772   -0.2370 C   0  0  0  0  0  0  0  0  0  0  0  0
   14.5301  138.5711    1.9644 N   0  0  0  0  0  0  0  0  0  0  0  0
  1  2  1  1
  1  3  1  0
  1  4  1  0
  1  5  1  0
  2  6  2  0
  2  7  1  0
  3  8  1  0
  3  9  2  0
  4 10  1  6
  5 11  1  1
  6 12  1  0
  7 13  2  0
 14  8  1  6
 15  8  1  6
 10 16  1  6
 16 14  1  1
 12 17  1  0
 12 18  2  0
 13 18  1  0
 17 19  1  0
 19 20  2  0
 19 21  1  0
 20 22  1  0
 20 23  1  0
 21 24  2  0
 22 25  2  0
 24 25  1  0
 23 26  3  0
 24 27  1  0
 27 28  1  0
 29 27  1  1
 27 30  1  6
 28 31  1  0
 28 32  2  0
 31 33  1  0
 34 31  1  6
 32 35  1  0
 33 35  2  0
M  END
$$$$
