1XOZ_CIA_A_501
     RDKit          3D

 48 53  0  0  0  0  0  0  0  0999 V2000
   46.7189   37.2388    7.7642 C   0  0  0  0  0  0  0  0  0  0  0  0
   45.5692   37.6143    8.4951 C   0  0  0  0  0  0  0  0  0  0  0  0
   45.1552   36.8622    9.6098 C   0  0  0  0  0  0  0  0  0  0  0  0
   45.9231   35.7543    9.9654 C   0  0  0  0  0  0  0  0  0  0  0  0
   45.7717   34.8211   10.9683 C   0  0  0  0  0  0  0  0  0  0  0  0
   46.7851   33.9094   10.7934 C   0  0  0  0  0  0  0  0  0  0  0  0
   47.5710   34.2503    9.7441 N   0  0  0  0  0  0  0  0  0  0  0  0
   47.0353   35.3819    9.2502 C   0  0  0  0  0  0  0  0  0  0  0  0
   47.4640   36.1050    8.1381 C   0  0  0  0  0  0  0  0  0  0  0  0
   46.9488   32.6818   11.6387 C   0  0  2  0  0  0  0  0  0  0  0  0
   46.0317   32.6839   12.8089 N   0  0  0  0  0  0  0  0  0  0  0  0
   46.2964   31.7863   13.9055 C   0  0  0  0  0  0  0  0  0  0  0  0
   46.6924   30.6098   13.6874 O   0  0  0  0  0  0  0  0  0  0  0  0
   46.1069   32.2677   15.3215 C   0  0  1  0  0  0  0  0  0  0  0  0
   46.1006   33.7420   15.3796 N   0  0  0  0  0  0  0  0  0  0  0  0
   45.5102   34.4942   14.3003 C   0  0  0  0  0  0  0  0  0  0  0  0
   45.3991   35.7487   14.3746 O   0  0  0  0  0  0  0  0  0  0  0  0
   45.0243   33.7309   13.0982 C   0  0  1  0  0  0  0  0  0  0  0  0
   44.6254   34.6044   11.8832 C   0  0  1  0  0  0  0  0  0  0  0  0
   46.6231   34.4385   16.5561 C   0  0  2  0  0  0  0  0  0  0  0  0
   48.3960   32.6003   12.0874 C   0  0  0  0  0  0  0  0  0  0  0  0
   48.8129   33.2367   13.2884 C   0  0  0  0  0  0  0  0  0  0  0  0
   50.1515   33.1610   13.7114 C   0  0  0  0  0  0  0  0  0  0  0  0
   51.0442   32.4512   12.9155 C   0  0  0  0  0  0  0  0  0  0  0  0
   52.3942   32.2379   13.1168 O   0  0  0  0  0  0  0  0  0  0  0  0
   52.8855   31.4483   12.0247 C   0  0  1  0  0  0  0  0  0  0  0  0
   51.7443   31.2202   11.1859 O   0  0  0  0  0  0  0  0  0  0  0  0
   50.6569   31.8449   11.7654 C   0  0  0  0  0  0  0  0  0  0  0  0
   49.3425   31.8937   11.3106 C   0  0  0  0  0  0  0  0  0  0  0  0
   47.0246   37.8228    6.9059 H   0  0  0  0  0  0  0  0  0  0  0  0
   45.0005   38.4840    8.1929 H   0  0  0  0  0  0  0  0  0  0  0  0
   44.2719   37.1387   10.1704 H   0  0  0  0  0  0  0  0  0  0  0  0
   48.4004   33.7311    9.3784 H   0  0  0  0  0  0  0  0  0  0  0  0
   48.3370   35.8012    7.5753 H   0  0  0  0  0  0  0  0  0  0  0  0
   46.6950   31.8038   11.0059 H   0  0  0  0  0  0  0  0  0  0  0  0
   45.1374   31.8845   15.7037 H   0  0  0  0  0  0  0  0  0  0  0  0
   46.9248   31.8575   15.9526 H   0  0  0  0  0  0  0  0  0  0  0  0
   44.0872   33.2226   13.4193 H   0  0  0  0  0  0  0  0  0  0  0  0
   44.1937   35.5763   12.2027 H   0  0  0  0  0  0  0  0  0  0  0  0
   43.8387   34.0722   11.3057 H   0  0  0  0  0  0  0  0  0  0  0  0
   47.4464   35.1183   16.2513 H   0  0  0  0  0  0  0  0  0  0  0  0
   47.0161   33.7221   17.3081 H   0  0  0  0  0  0  0  0  0  0  0  0
   45.8137   35.0318   17.0317 H   0  0  0  0  0  0  0  0  0  0  0  0
   48.1005   33.7869   13.8898 H   0  0  0  0  0  0  0  0  0  0  0  0
   50.4771   33.6399   14.6252 H   0  0  0  0  0  0  0  0  0  0  0  0
   53.6649   32.0087   11.4670 H   0  0  0  0  0  0  0  0  0  0  0  0
   53.2845   30.4824   12.3993 H   0  0  0  0  0  0  0  0  0  0  0  0
   49.0648   31.3993   10.3887 H   0  0  0  0  0  0  0  0  0  0  0  0
  1  2  2  0
  2  3  1  0
  3  4  2  0
  4  5  1  0
  5  6  2  0
  6  7  1  0
  4  8  1  0
  7  8  1  0
  1  9  1  0
  8  9  2  0
  6 10  1  0
 10 11  1  0
 11 12  1  0
 12 13  2  0
 12 14  1  0
 14 15  1  0
 15 16  1  0
 16 17  2  0
 11 18  1  0
 16 18  1  0
  5 19  1  0
 18 19  1  0
 15 20  1  0
 10 21  1  0
 21 22  2  0
 22 23  1  0
 23 24  2  0
 24 25  1  0
 25 26  1  0
 26 27  1  0
 24 28  1  0
 27 28  1  0
 21 29  1  0
 28 29  2  0
  1 30  1  0
  2 31  1  0
  3 32  1  0
  7 33  1  0
  9 34  1  0
 10 35  1  6
 14 36  1  1
 14 37  1  0
 18 38  1  1
 19 39  1  1
 19 40  1  0
 20 41  1  6
 20 42  1  0
 20 43  1  0
 22 44  1  0
 23 45  1  0
 26 46  1  6
 26 47  1  0
 29 48  1  0
M  END
