7NB4_U6Q_A_401
     RDKit          3D

 31 34  0  0  0  0  0  0  0  0999 V2000
   10.6532    1.6239   -0.8143 C   0  0  0  0  0  0  0  0  0  0  0  0
    9.2166    1.8873   -1.1796 C   0  0  0  0  0  0  0  0  0  0  0  0
    8.6209    0.7847   -1.9897 C   0  0  0  0  0  0  0  0  0  0  0  0
    7.3269    0.6007   -2.4239 C   0  0  0  0  0  0  0  0  0  0  0  0
    7.0803   -0.5072   -3.1471 C   0  0  0  0  0  0  0  0  0  0  0  0
    8.1282   -1.3438   -3.3833 C   0  0  0  0  0  0  0  0  0  0  0  0
    9.5316   -0.6205   -2.5994 S   0  0  0  0  0  0  0  0  0  0  0  0
    8.0958   -2.4952   -4.0818 N   0  0  0  0  0  0  0  0  0  0  0  0
    6.9231   -2.9031   -4.6235 C   0  0  0  0  0  0  0  0  0  0  0  0
    5.8760   -2.1234   -4.4216 N   0  0  0  0  0  0  0  0  0  0  0  0
    5.8684   -0.9575   -3.7244 C   0  0  0  0  0  0  0  0  0  0  0  0
    4.6421   -0.2821   -3.6386 N   0  0  0  0  0  0  0  0  0  0  0  0
    3.4586   -0.8119   -4.3405 C   0  0  2  0  0  0  0  0  0  0  0  0
    2.6162    0.2286   -4.9791 C   0  0  0  0  0  0  0  0  0  0  0  0
    3.2295    0.8874   -6.1625 C   0  0  0  0  0  0  0  0  0  0  0  0
    3.3492    2.2674   -6.2518 C   0  0  0  0  0  0  0  0  0  0  0  0
    3.9179    2.8914   -7.3468 C   0  0  0  0  0  0  0  0  0  0  0  0
    4.3910    2.1213   -8.4043 C   0  0  0  0  0  0  0  0  0  0  0  0
    4.2697    0.7515   -8.3107 C   0  0  0  0  0  0  0  0  0  0  0  0
    3.7066    0.1202   -7.2275 C   0  0  0  0  0  0  0  0  0  0  0  0
    2.6144   -1.5918   -3.3927 C   0  0  0  0  0  0  0  0  0  0  0  0
    2.7453   -1.5328   -2.1434 O   0  0  0  0  0  0  0  0  0  0  0  0
    1.6404   -2.4192   -3.9306 O   0  0  0  0  0  0  0  0  0  0  0  0
    6.3482    1.6832   -2.0318 C   0  0  0  0  0  0  0  0  0  0  0  0
    6.2622    2.8366   -2.7813 C   0  0  0  0  0  0  0  0  0  0  0  0
    7.1120    3.0946   -3.9459 C   0  0  0  0  0  0  0  0  0  0  0  0
    5.3233    3.7666   -2.3838 C   0  0  0  0  0  0  0  0  0  0  0  0
    5.0991    5.2813   -3.2412 Cl  0  0  0  0  0  0  0  0  0  0  0  0
    4.5089    3.5484   -1.2849 C   0  0  0  0  0  0  0  0  0  0  0  0
    4.5986    2.3824   -0.5300 C   0  0  0  0  0  0  0  0  0  0  0  0
    5.5257    1.4586   -0.9186 C   0  0  0  0  0  0  0  0  0  0  0  0
  1  2  1  0
  2  3  1  0
  3  4  2  0
  4  5  1  0
  5  6  2  0
  6  7  1  0
  3  7  1  0
  6  8  1  0
  8  9  2  0
  9 10  1  0
 10 11  2  0
  5 11  1  0
 11 12  1  0
 12 13  1  0
 13 14  1  1
 14 15  1  0
 15 16  2  0
 16 17  1  0
 17 18  2  0
 18 19  1  0
 15 20  1  0
 19 20  2  0
 13 21  1  0
 21 22  2  0
 21 23  1  0
  4 24  1  0
 24 25  2  0
 25 26  1  0
 25 27  1  0
 27 28  1  0
 27 29  2  0
 29 30  1  0
 24 31  1  0
 30 31  2  0
M  END
$$$$
