7QTA_URI_B_407
     RDKit          3D

 17 18  0  0  0  0  0  0  0  0999 V2000
  -10.5821   -2.3913   -1.6684 N   0  0  0  0  0  0  0  0  0  0  0  0
  -11.5410   -2.5665   -2.6246 C   0  0  0  0  0  0  0  0  0  0  0  0
  -12.0175   -3.7742   -2.9503 N   0  0  0  0  0  0  0  0  0  0  0  0
  -11.5838   -4.9187   -2.3548 C   0  0  0  0  0  0  0  0  0  0  0  0
  -10.6217   -4.7744   -1.3912 C   0  0  0  0  0  0  0  0  0  0  0  0
  -10.1554   -3.5346   -1.0801 C   0  0  0  0  0  0  0  0  0  0  0  0
  -12.0164   -1.5788   -3.2419 O   0  0  0  0  0  0  0  0  0  0  0  0
  -12.0465   -6.0517   -2.6763 O   0  0  0  0  0  0  0  0  0  0  0  0
  -10.0805   -1.0906   -1.3293 C   0  0  1  0  0  0  0  0  0  0  0  0
  -10.5832   -0.3887   -0.1681 C   0  0  1  0  0  0  0  0  0  0  0  0
   -9.3885   -0.1998    0.7270 C   0  0  1  0  0  0  0  0  0  0  0  0
   -8.2700   -0.2866   -0.2920 C   0  0  2  0  0  0  0  0  0  0  0  0
  -10.9513    0.9265   -0.5098 O   0  0  0  0  0  0  0  0  0  0  0  0
   -9.3946    1.0358    1.3715 O   0  0  0  0  0  0  0  0  0  0  0  0
   -8.6904   -1.2376   -1.2149 O   0  0  0  0  0  0  0  0  0  0  0  0
   -7.0100   -0.7585    0.4144 C   0  0  0  0  0  0  0  0  0  0  0  0
   -7.0550   -2.1416    0.5957 O   0  0  0  0  0  0  0  0  0  0  0  0
  1  2  1  0
  2  3  1  0
  3  4  1  0
  4  5  1  0
  1  6  1  0
  5  6  2  0
  2  7  2  0
  4  8  2  0
  9  1  1  1
  9 10  1  0
 10 11  1  0
 11 12  1  0
 10 13  1  6
 11 14  1  6
  9 15  1  0
 12 15  1  0
 12 16  1  1
 16 17  1  0
M  END
$$$$
