
     RDKit          3D

 17 20  0  0  0  0  0  0  0  0999 V2000
   35.7124   39.2677   62.9395 C   0  0  0  0  0  0  0  0  0  0  0  0
   35.7484   38.4819   64.0899 C   0  0  0  0  0  0  0  0  0  0  0  0
   35.0444   37.2769   64.1482 C   0  0  0  0  0  0  0  0  0  0  0  0
   34.9700   38.8942   61.8058 C   0  0  0  0  0  0  0  0  0  0  0  0
   34.2820   37.6689   61.8896 C   0  0  0  0  0  0  0  0  0  0  0  0
   34.2988   36.8566   63.0287 C   0  0  0  0  0  0  0  0  0  0  0  0
   34.9059   39.6860   60.5332 C   0  0  0  0  0  0  0  0  0  0  0  0
   35.5787   41.0369   60.4425 C   0  0  0  0  0  0  0  0  0  0  0  0
   34.0837   40.9534   60.4664 C   0  0  0  0  0  0  0  0  0  0  0  0
   33.0119   35.8514   61.4592 C   0  0  0  0  0  0  0  0  0  0  0  0
   33.4919   35.7093   62.7526 C   0  0  0  0  0  0  0  0  0  0  0  0
   33.1087   34.5547   63.4530 C   0  0  0  0  0  0  0  0  0  0  0  0
   32.2775   33.6454   62.7949 C   0  0  0  0  0  0  0  0  0  0  0  0
   31.8625   33.9080   61.4874 C   0  0  0  0  0  0  0  0  0  0  0  0
   30.9684   32.9208   60.7922 C   0  0  0  0  0  0  0  0  0  0  0  0
   32.2120   35.0094   60.7806 N   0  0  0  0  0  0  0  0  0  0  0  0
   33.4954   37.0243   60.9583 N   0  0  0  0  0  0  0  0  0  0  0  0
  1  2  4  0
  2  3  4  0
  1  4  4  0
  4  5  4  0
  5  6  4  0
  3  6  4  0
  4  7  1  0
  7  8  1  0
  8  9  1  0
  7  9  1  0
 10 11  4  0
  6 11  4  0
 11 12  4  0
 12 13  4  0
 13 14  4  0
 14 15  1  0
 10 16  4  0
 14 16  4  0
 10 17  4  0
  5 17  4  0
M  END
