8AP0_PRP_AAA_401
     RDKit          3D

 22 22  0  0  0  0  0  0  0  0999 V2000
   11.9510   19.0069    7.7980 C   0  0  1  0  0  0  0  0  0  0  0  0
   13.1754   19.8750    7.4733 C   0  0  1  0  0  0  0  0  0  0  0  0
   13.6635   20.0884    8.9138 C   0  0  1  0  0  0  0  0  0  0  0  0
   13.4193   18.7052    9.4509 C   0  0  1  0  0  0  0  0  0  0  0  0
   13.0143   18.7357   10.9156 C   0  0  0  0  0  0  0  0  0  0  0  0
   11.3883   18.4784    6.6679 O   0  0  0  0  0  0  0  0  0  0  0  0
   14.0947   19.0991    6.7619 O   0  0  0  0  0  0  0  0  0  0  0  0
   14.9988   20.4536    8.9357 O   0  0  0  0  0  0  0  0  0  0  0  0
   12.4876   18.0854    8.6650 O   0  0  0  0  0  0  0  0  0  0  0  0
   13.5133   19.8414   11.5599 O   0  0  0  0  0  0  0  0  0  0  0  0
   13.0300   19.9141   13.1821 P   0  0  1  0  0  0  0  0  0  0  0  0
   13.4913   18.6751   13.9325 O   0  0  0  0  0  0  0  0  0  0  0  0
   13.6294   21.2876   13.9453 O   0  0  0  0  0  0  0  0  0  0  0  0
   11.3419   20.0129   13.1954 O   0  0  0  0  0  0  0  0  0  0  0  0
    9.9291   19.2709    6.3744 P   0  0  1  0  0  0  0  0  0  0  0  0
   10.1386   20.7681    6.1354 O   0  0  0  0  0  0  0  0  0  0  0  0
    9.2821   18.5799    4.9524 O   0  0  0  0  0  0  0  0  0  0  0  0
    8.8547   19.0580    7.6652 O   0  0  0  0  0  0  0  0  0  0  0  0
    7.9950   20.4728    7.9887 P   0  0  1  0  0  0  0  0  0  0  0  0
    7.9816   21.4263    6.8155 O   0  0  0  0  0  0  0  0  0  0  0  0
    6.3760   20.1598    8.3949 O   0  0  0  0  0  0  0  0  0  0  0  0
    8.6750   21.3195    9.2973 O   0  0  0  0  0  0  0  0  0  0  0  0
  1  2  1  0
  2  3  1  0
  3  4  1  0
  4  5  1  1
  1  6  1  6
  2  7  1  6
  3  8  1  6
  1  9  1  0
  4  9  1  0
  5 10  1  0
 10 11  1  0
 11 12  2  0
 11 13  1  1
 11 14  1  0
  6 15  1  0
 15 16  2  0
 15 17  1  6
 15 18  1  0
 18 19  1  0
 19 20  2  0
 19 21  1  1
 19 22  1  0
M  END
$$$$
