6VTA_AKN_B_302
     RDKit          3D

 40 42  0  0  0  0  0  0  0  0999 V2000
   84.2730    4.0963   15.2664 C   0  0  1  0  0  0  0  0  0  0  0  0
   85.5547    3.3226   15.1777 C   0  0  1  0  0  0  0  0  0  0  0  0
   86.0234    3.1050   13.7720 C   0  0  2  0  0  0  0  0  0  0  0  0
   84.8736    2.6714   12.8958 C   0  0  1  0  0  0  0  0  0  0  0  0
   83.6228    3.4517   13.1451 C   0  0  1  0  0  0  0  0  0  0  0  0
   82.4813    2.7768   12.4157 C   0  0  0  0  0  0  0  0  0  0  0  0
   85.2617    2.9761   11.5703 O   0  0  0  0  0  0  0  0  0  0  0  0
   84.4855    5.4292   14.9839 O   0  0  0  0  0  0  0  0  0  0  0  0
   83.2636    3.5399   14.4803 O   0  0  0  0  0  0  0  0  0  0  0  0
   82.1476    1.4981   13.0184 N   0  0  0  0  0  0  0  0  0  0  0  0
   83.9583    8.9559   14.8081 C   0  0  2  0  0  0  0  0  0  0  0  0
   84.0538   10.3664   14.6035 N   0  0  0  0  0  0  0  0  0  0  0  0
   82.6903    8.3792   14.1554 C   0  0  0  0  0  0  0  0  0  0  0  0
   82.9257    6.9125   14.0694 C   0  0  2  0  0  0  0  0  0  0  0  0
   81.6878    6.3219   13.5513 N   0  0  0  0  0  0  0  0  0  0  0  0
   83.4090    6.2637   15.3282 C   0  0  2  0  0  0  0  0  0  0  0  0
   83.6455    7.1323   16.4939 C   0  0  2  0  0  0  0  0  0  0  0  0
   82.6979    6.8977   17.5063 O   0  0  0  0  0  0  0  0  0  0  0  0
   83.8194    8.6011   16.2511 C   0  0  1  0  0  0  0  0  0  0  0  0
   84.7840    9.1609   17.0851 O   0  0  0  0  0  0  0  0  0  0  0  0
   84.5704    8.9006   18.4375 C   0  0  2  0  0  0  0  0  0  0  0  0
   85.4981    9.6818   19.2771 C   0  0  2  0  0  0  0  0  0  0  0  0
   86.5541   10.2292   18.5483 O   0  0  0  0  0  0  0  0  0  0  0  0
   86.0673    8.8866   20.4562 C   0  0  1  0  0  0  0  0  0  0  0  0
   86.5931    9.7861   21.4444 N   0  0  0  0  0  0  0  0  0  0  0  0
   84.8853    8.0902   20.9630 C   0  0  2  0  0  0  0  0  0  0  0  0
   85.1350    7.4582   22.1613 O   0  0  0  0  0  0  0  0  0  0  0  0
   84.5753    7.0807   19.8978 C   0  0  2  0  0  0  0  0  0  0  0  0
   84.5570    7.5499   18.6276 O   0  0  0  0  0  0  0  0  0  0  0  0
   83.2107    6.5068   20.2216 C   0  0  0  0  0  0  0  0  0  0  0  0
   82.5186    7.3662   21.1041 O   0  0  0  0  0  0  0  0  0  0  0  0
   86.5147    3.9604   15.9509 O   0  0  0  0  0  0  0  0  0  0  0  0
   86.9212    2.0143   13.8153 O   0  0  0  0  0  0  0  0  0  0  0  0
   80.5444   15.1561   16.2747 N   0  0  0  0  0  0  0  0  0  0  0  0
   82.9073   11.1934   14.6881 C   0  0  0  0  0  0  0  0  0  0  0  0
   81.9191   11.0603   13.8917 O   0  0  0  0  0  0  0  0  0  0  0  0
   82.7809   12.2691   15.7090 C   0  0  2  0  0  0  0  0  0  0  0  0
   81.7158   13.2697   15.4260 C   0  0  0  0  0  0  0  0  0  0  0  0
   81.6902   14.3004   16.5565 C   0  0  0  0  0  0  0  0  0  0  0  0
   84.0073   12.8521   15.9323 O   0  0  0  0  0  0  0  0  0  0  0  0
  1  2  1  0
  2  3  1  0
  3  4  1  0
  4  5  1  0
  5  6  1  0
  4  7  1  6
  1  8  1  6
  5  9  1  1
  1  9  1  0
  6 10  1  1
 11 12  1  1
 13 11  1  6
 13 14  1  0
 14 15  1  1
 14 16  1  0
 16  8  1  6
 16 17  1  0
 17 18  1  1
 11 19  1  0
 17 19  1  0
 19 20  1  1
 21 20  1  6
 21 22  1  0
 22 23  1  6
 22 24  1  0
 24 25  1  1
 24 26  1  0
 26 27  1  1
 26 28  1  0
 21 29  1  0
 28 29  1  6
 28 30  1  0
 30 31  1  6
  2 32  1  1
  3 33  1  1
 12 35  1  0
 35 36  2  0
 35 37  1  0
 37 38  1  0
 38 39  1  1
 39 34  1  6
 37 40  1  6
M  END
$$$$
