@<TRIPOS>MOLECULE
1MMV_3AR_B_2785
 36 35 0 0 0
SMALL
GASTEIGER

@<TRIPOS>ATOM
      1 N1         -3.6996    1.6524   -0.6914 N.3     1  <1>        -0.3184
      2 C1         -2.9164    0.4491   -0.3997 C.3     1  <1>         0.1033
      3 C2         -3.2638   -0.0997    0.9581 C.2     1  <1>         0.3217
      4 O1         -3.6442    0.6682    1.8832 O.2     1  <1>        -0.2493
      5 C3         -1.4043    0.7308   -0.5106 C.3     1  <1>        -0.0245
      6 C4         -0.9205    1.8628    0.4165 C.3     1  <1>        -0.0203
      7 C5          0.5733    2.1607    0.2318 C.3     1  <1>         0.0646
      8 N2          1.3897    1.0550    0.7350 N.pl3   1  <1>        -0.2786
      9 C6          1.8788    0.0064   -0.1148 C.cat   1  <1>         0.3433
     10 N3          1.7260   -1.3565    0.3172 N.pl3   1  <1>        -0.2786
     11 N4          2.4685    0.2931   -1.2391 N.pl3   1  <1>        -0.2917
     12 C7          1.8604   -2.5019   -0.5861 C.3     1  <1>         0.0643
     13 C8          1.3078   -3.7857    0.0466 C.3     1  <1>        -0.0251
     14 C9         -0.2134   -3.7421    0.1940 C.3     1  <1>        -0.0624
     15 O2         -3.1167   -1.4610    1.2059 O.3     1  <1>        -0.4795
     16 H1         -3.4789    1.9600   -1.6666 H       1  <1>         0.1190
     17 H2         -4.7130    1.3919   -0.6937 H       1  <1>         0.1190
     18 H3         -3.1704   -0.3310   -1.1531 H       1  <1>         0.0574
     19 H4         -0.8562   -0.2067   -0.2766 H       1  <1>         0.0286
     20 H5         -1.1687    0.9975   -1.5643 H       1  <1>         0.0286
     21 H6         -1.4877    2.7915    0.1916 H       1  <1>         0.0296
     22 H7         -1.1082    1.5957    1.4786 H       1  <1>         0.0296
     23 H8          0.8272    3.0764    0.8075 H       1  <1>         0.0655
     24 H9          0.7855    2.3736   -0.8367 H       1  <1>         0.0655
     25 H10         1.3429    0.8634    1.7613 H       1  <1>         0.2578
     26 H11         1.3949   -1.5153    1.2958 H       1  <1>         0.2578
     27 H12         2.8503   -0.4472   -1.8670 H       1  <1>         0.2546
     28 H13         2.6253    1.2830   -1.5296 H       1  <1>         0.2546
     29 H14         2.9358   -2.6516   -0.8217 H       1  <1>         0.0655
     30 H15         1.3168   -2.3003   -1.5353 H       1  <1>         0.0655
     31 H16         1.7758   -3.9497    1.0415 H       1  <1>         0.0293
     32 H17         1.5757   -4.6477   -0.6019 H       1  <1>         0.0293
     33 H18        -0.6937   -3.5992   -0.7974 H       1  <1>         0.0231
     34 H19        -0.5209   -2.9168    0.8696 H       1  <1>         0.0231
     35 H20        -0.5711   -4.7006    0.6253 H       1  <1>         0.0231
     36 H21        -3.3242   -1.8487    2.1183 H       1  <1>         0.2951
@<TRIPOS>UNITY_ATOM_ATTR
11 1
charge 1
@<TRIPOS>BOND
     1     2     1    1
     2     2     3    1
     3     3     4    2
     4     2     5    1
     5     5     6    1
     6     6     7    1
     7     7     8    1
     8     8     9    1
     9     9    10    1
    10     9    11    2
    11    10    12    1
    12    12    13    1
    13    13    14    1
    14     3    15    1
    15     1    16    1
    16     1    17    1
    17     2    18    1
    18     5    19    1
    19     5    20    1
    20     6    21    1
    21     6    22    1
    22     7    23    1
    23     7    24    1
    24     8    25    1
    25    10    26    1
    26    11    27    1
    27    11    28    1
    28    12    29    1
    29    12    30    1
    30    13    31    1
    31    13    32    1
    32    14    33    1
    33    14    34    1
    34    14    35    1
    35    15    36    1
