7LZD_YHY_A_1805
     RDKit          3D

 56 59  0  0  0  0  0  0  0  0999 V2000
    5.3266   21.7028    7.4195 C   0  0  2  0  0  0  0  0  0  0  0  0
    4.2694   21.5569    6.4054 N   0  0  0  0  0  0  0  0  0  0  0  0
    4.8646   21.3864    5.0659 C   0  0  1  0  0  0  0  0  0  0  0  0
    3.2488   22.6343    6.5155 C   0  0  1  0  0  0  0  0  0  0  0  0
    3.6503   23.9769    5.8331 C   0  0  1  0  0  0  0  0  0  0  0  0
    2.4346   24.7828    5.3414 C   0  0  2  0  0  0  0  0  0  0  0  0
    0.7892   23.1854    6.4321 C   0  0  1  0  0  0  0  0  0  0  0  0
    1.2712   24.5590    6.2116 N   0  0  0  0  0  0  0  0  0  0  0  0
    1.8592   22.1486    6.0522 C   0  0  2  0  0  0  0  0  0  0  0  0
    0.6179   25.6629    6.8690 C   0  0  0  0  0  0  0  0  0  0  0  0
   -0.0634   25.4650    8.0827 C   0  0  0  0  0  0  0  0  0  0  0  0
   -0.7063   26.5368    8.7285 C   0  0  0  0  0  0  0  0  0  0  0  0
   -0.6976   27.8024    8.1249 C   0  0  0  0  0  0  0  0  0  0  0  0
   -0.0315   28.0038    6.9143 C   0  0  0  0  0  0  0  0  0  0  0  0
    0.6244   26.9417    6.2885 C   0  0  0  0  0  0  0  0  0  0  0  0
   -1.4246   26.3466    9.9599 N   0  0  0  0  0  0  0  0  0  0  0  0
   -2.4740   25.3791   10.1306 C   0  0  0  0  0  0  0  0  0  0  0  0
   -2.8164   25.0155   11.2884 O   0  0  0  0  0  0  0  0  0  0  0  0
   -3.1911   24.8290    8.9650 C   0  0  0  0  0  0  0  0  0  0  0  0
   -3.8991   25.5692    8.0188 C   0  0  0  0  0  0  0  0  0  0  0  0
   -4.3711   24.6390    7.1184 C   0  0  0  0  0  0  0  0  0  0  0  0
   -3.9453   23.4035    7.5345 C   0  0  0  0  0  0  0  0  0  0  0  0
   -4.2583   22.2384    6.8206 C   0  0  0  0  0  0  0  0  0  0  0  0
   -3.7842   20.8909    7.2796 C   0  0  1  0  0  0  0  0  0  0  0  0
   -5.0315   22.3825    5.6471 C   0  0  0  0  0  0  0  0  0  0  0  0
   -5.4657   23.6577    5.2242 C   0  0  0  0  0  0  0  0  0  0  0  0
   -5.1339   24.8050    5.9649 C   0  0  0  0  0  0  0  0  0  0  0  0
   -5.5441   26.0342    5.5651 F   0  0  0  0  0  0  0  0  0  0  0  0
   -3.2204   23.5083    8.6630 N   0  0  0  0  0  0  0  0  0  0  0  0
    5.7261   20.7049    7.7015 H   0  0  0  0  0  0  0  0  0  0  0  0
    4.9151   22.1623    8.3435 H   0  0  0  0  0  0  0  0  0  0  0  0
    6.1630   22.3305    7.0418 H   0  0  0  0  0  0  0  0  0  0  0  0
    5.2495   20.3491    4.9684 H   0  0  0  0  0  0  0  0  0  0  0  0
    4.1159   21.5234    4.2620 H   0  0  0  0  0  0  0  0  0  0  0  0
    5.7167   22.0788    4.8967 H   0  0  0  0  0  0  0  0  0  0  0  0
    3.1202   22.8604    7.6004 H   0  0  0  0  0  0  0  0  0  0  0  0
    4.2138   24.5934    6.5672 H   0  0  0  0  0  0  0  0  0  0  0  0
    4.3192   23.8224    4.9651 H   0  0  0  0  0  0  0  0  0  0  0  0
    2.1722   24.4540    4.3122 H   0  0  0  0  0  0  0  0  0  0  0  0
    2.6966   25.8608    5.2732 H   0  0  0  0  0  0  0  0  0  0  0  0
    0.5398   23.0541    7.5084 H   0  0  0  0  0  0  0  0  0  0  0  0
   -0.1308   23.0072    5.8356 H   0  0  0  0  0  0  0  0  0  0  0  0
    1.6159   21.1741    6.5292 H   0  0  0  0  0  0  0  0  0  0  0  0
    1.8373   22.0108    4.9508 H   0  0  0  0  0  0  0  0  0  0  0  0
   -0.1262   24.4682    8.4985 H   0  0  0  0  0  0  0  0  0  0  0  0
   -1.2029   28.6352    8.5978 H   0  0  0  0  0  0  0  0  0  0  0  0
   -0.0233   28.9862    6.4599 H   0  0  0  0  0  0  0  0  0  0  0  0
    1.1421   27.1196    5.3553 H   0  0  0  0  0  0  0  0  0  0  0  0
   -1.0985   26.8749   10.7999 H   0  0  0  0  0  0  0  0  0  0  0  0
   -4.0401   26.6409    7.9794 H   0  0  0  0  0  0  0  0  0  0  0  0
   -4.0640   20.0958    6.5564 H   0  0  0  0  0  0  0  0  0  0  0  0
   -2.6788   20.9001    7.3833 H   0  0  0  0  0  0  0  0  0  0  0  0
   -4.2411   20.6483    8.2619 H   0  0  0  0  0  0  0  0  0  0  0  0
   -5.2986   21.5140    5.0584 H   0  0  0  0  0  0  0  0  0  0  0  0
   -6.0568   23.7517    4.3224 H   0  0  0  0  0  0  0  0  0  0  0  0
   -2.7683   22.7320    9.1961 H   0  0  0  0  0  0  0  0  0  0  0  0
  1  2  1  0
  2  3  1  0
  2  4  1  0
  4  5  1  0
  5  6  1  0
  7  8  1  0
  6  8  1  0
  7  9  1  0
  4  9  1  0
  8 10  1  0
 10 11  2  0
 11 12  1  0
 12 13  2  0
 13 14  1  0
 14 15  2  0
 10 15  1  0
 12 16  1  0
 16 17  1  0
 17 18  2  0
 17 19  1  0
 19 20  2  0
 20 21  1  0
 21 22  2  0
 22 23  1  0
 23 24  1  0
 23 25  2  0
 25 26  1  0
 21 27  1  0
 26 27  2  0
 27 28  1  0
 19 29  1  0
 22 29  1  0
  1 30  1  1
  1 31  1  0
  1 32  1  0
  3 33  1  1
  3 34  1  0
  3 35  1  0
  4 36  1  1
  5 37  1  1
  5 38  1  0
  6 39  1  6
  6 40  1  0
  7 41  1  1
  7 42  1  0
  9 43  1  1
  9 44  1  0
 11 45  1  0
 13 46  1  0
 14 47  1  0
 15 48  1  0
 16 49  1  0
 20 50  1  0
 24 51  1  6
 24 52  1  0
 24 53  1  0
 25 54  1  0
 26 55  1  0
 29 56  1  0
M  END
