7B0E_C2E_A_401
     RDKit          3D

 70 76  0  0  0  0  0  0  0  0999 V2000
  -25.0178  -20.5821   -1.3289 P   0  0  1  0  0  5  0  0  0  0  0  0
  -24.8800  -18.9616   -0.8602 O   0  0  0  0  0  0  0  0  0  0  0  0
  -26.3832  -21.0928   -0.9172 O   0  0  0  0  0  0  0  0  0  0  0  0
  -24.8369  -20.6721   -3.0225 O   0  0  0  0  0  0  0  0  0  0  0  0
  -25.3862  -21.8875   -3.4740 C   0  0  1  0  0  0  0  0  0  0  0  0
  -24.8855  -22.1940   -4.8849 C   0  0  1  0  0  0  0  0  0  0  0  0
  -25.1001  -21.0920   -5.7258 O   0  0  0  0  0  0  0  0  0  0  0  0
  -23.3965  -22.5451   -4.9139 C   0  0  1  0  0  0  0  0  0  0  0  0
  -23.2437  -23.9560   -4.9434 O   0  0  0  0  0  0  0  0  0  0  0  0
  -22.9093  -21.8895   -6.1934 C   0  0  1  0  0  0  0  0  0  0  0  0
  -22.3835  -22.8140   -7.1162 O   0  0  0  0  0  0  0  0  0  0  0  0
  -24.1568  -21.2142   -6.7614 C   0  0  2  0  0  0  0  0  0  0  0  0
  -23.8437  -19.8886   -7.2986 N   0  0  0  0  0  0  0  0  0  0  0  0
  -23.0890  -19.6039   -8.3932 C   0  0  0  0  0  0  0  0  0  0  0  0
  -23.0228  -18.2702   -8.6742 N   0  0  0  0  0  0  0  0  0  0  0  0
  -23.7694  -17.7245   -7.6886 C   0  0  0  0  0  0  0  0  0  0  0  0
  -24.0777  -16.3883   -7.4460 C   0  0  0  0  0  0  0  0  0  0  0  0
  -23.6502  -15.4717   -8.2008 O   0  0  0  0  0  0  0  0  0  0  0  0
  -24.8600  -16.0951   -6.3600 N   0  0  0  0  0  0  0  0  0  0  0  0
  -25.3244  -17.0891   -5.5289 C   0  0  0  0  0  0  0  0  0  0  0  0
  -26.1318  -16.7541   -4.3965 N   0  0  0  0  0  0  0  0  0  0  0  0
  -25.0242  -18.4049   -5.7861 N   0  0  0  0  0  0  0  0  0  0  0  0
  -24.2548  -18.6855   -6.8687 C   0  0  0  0  0  0  0  0  0  0  0  0
  -22.1509  -24.4718   -3.7285 P   0  0  2  0  0  5  0  0  0  0  0  0
  -20.5646  -24.2634   -4.2934 O   0  0  0  0  0  0  0  0  0  0  0  0
  -22.3770  -25.9455   -3.4689 O   0  0  0  0  0  0  0  0  0  0  0  0
  -22.4216  -23.6179   -2.2677 O   0  0  0  0  0  0  0  0  0  0  0  0
  -21.2251  -22.9551   -1.9089 C   0  0  1  0  0  0  0  0  0  0  0  0
  -21.4505  -22.0642   -0.6845 C   0  0  1  0  0  0  0  0  0  0  0  0
  -20.2416  -21.4048   -0.3641 O   0  0  0  0  0  0  0  0  0  0  0  0
  -22.5317  -21.0094   -0.9183 C   0  0  1  0  0  0  0  0  0  0  0  0
  -23.8072  -21.5242   -0.5733 O   0  0  0  0  0  0  0  0  0  0  0  0
  -22.0810  -19.8913    0.0045 C   0  0  1  0  0  0  0  0  0  0  0  0
  -22.7133  -19.9428    1.2638 O   0  0  0  0  0  0  0  0  0  0  0  0
  -20.5695  -20.1231    0.1373 C   0  0  2  0  0  0  0  0  0  0  0  0
  -19.8312  -19.0937   -0.6019 N   0  0  0  0  0  0  0  0  0  0  0  0
  -19.8866  -17.7588   -0.3807 C   0  0  0  0  0  0  0  0  0  0  0  0
  -19.2664  -17.0197   -1.3425 N   0  0  0  0  0  0  0  0  0  0  0  0
  -18.8187  -17.9575   -2.1915 C   0  0  0  0  0  0  0  0  0  0  0  0
  -18.1516  -17.8034   -3.3981 C   0  0  0  0  0  0  0  0  0  0  0  0
  -17.8425  -16.6644   -3.8340 O   0  0  0  0  0  0  0  0  0  0  0  0
  -17.8457  -18.9280   -4.1107 N   0  0  0  0  0  0  0  0  0  0  0  0
  -18.1961  -20.1729   -3.6486 C   0  0  0  0  0  0  0  0  0  0  0  0
  -17.8734  -21.3336   -4.4124 N   0  0  0  0  0  0  0  0  0  0  0  0
  -18.8663  -20.3075   -2.4613 N   0  0  0  0  0  0  0  0  0  0  0  0
  -19.1568  -19.1896   -1.7581 C   0  0  0  0  0  0  0  0  0  0  0  0
  -23.9089  -18.7842   -0.8312 H   0  0  0  0  0  0  0  0  0  0  0  0
  -25.1026  -22.7526   -2.8274 H   0  0  0  0  0  0  0  0  0  0  0  0
  -26.4920  -21.7975   -3.5166 H   0  0  0  0  0  0  0  0  0  0  0  0
  -25.4724  -23.0501   -5.2717 H   0  0  0  0  0  0  0  0  0  0  0  0
  -22.8840  -22.0391   -4.0646 H   0  0  0  0  0  0  0  0  0  0  0  0
  -22.1351  -21.1263   -5.9352 H   0  0  0  0  0  0  0  0  0  0  0  0
  -21.5446  -23.1581   -6.7141 H   0  0  0  0  0  0  0  0  0  0  0  0
  -24.6102  -21.8411   -7.5687 H   0  0  0  0  0  0  0  0  0  0  0  0
  -22.5914  -20.3608   -8.9873 H   0  0  0  0  0  0  0  0  0  0  0  0
  -25.1072  -15.0978   -6.1581 H   0  0  0  0  0  0  0  0  0  0  0  0
  -27.0241  -17.2668   -4.2203 H   0  0  0  0  0  0  0  0  0  0  0  0
  -25.8463  -15.9901   -3.7475 H   0  0  0  0  0  0  0  0  0  0  0  0
  -20.6505  -23.6841   -5.0866 H   0  0  0  0  0  0  0  0  0  0  0  0
  -20.4402  -23.7042   -1.6439 H   0  0  0  0  0  0  0  0  0  0  0  0
  -20.8579  -22.3082   -2.7364 H   0  0  0  0  0  0  0  0  0  0  0  0
  -21.7331  -22.7104    0.1771 H   0  0  0  0  0  0  0  0  0  0  0  0
  -22.4694  -20.6685   -1.9853 H   0  0  0  0  0  0  0  0  0  0  0  0
  -22.3054  -18.9042   -0.4578 H   0  0  0  0  0  0  0  0  0  0  0  0
  -23.2751  -20.7606    1.3004 H   0  0  0  0  0  0  0  0  0  0  0  0
  -20.2648  -20.0765    1.2112 H   0  0  0  0  0  0  0  0  0  0  0  0
  -20.4102  -17.3156    0.4587 H   0  0  0  0  0  0  0  0  0  0  0  0
  -17.3457  -18.8375   -5.0255 H   0  0  0  0  0  0  0  0  0  0  0  0
  -18.1344  -21.4173   -5.4162 H   0  0  0  0  0  0  0  0  0  0  0  0
  -17.4305  -22.1521   -3.9507 H   0  0  0  0  0  0  0  0  0  0  0  0
  1  2  1  1
  1  3  2  0
  1  4  1  0
  4  5  1  0
  6  5  1  0
  6  7  1  0
  6  8  1  0
  8  9  1  0
  8 10  1  0
 10 11  1  0
 10 12  1  0
  7 12  1  0
 12 13  1  0
 13 14  1  0
 14 15  2  0
 15 16  1  0
 16 17  1  0
 17 18  2  0
 17 19  1  0
 19 20  1  0
 20 21  1  0
 20 22  2  0
 13 23  1  0
 22 23  1  0
 16 23  2  0
  9 24  1  0
 24 25  1  6
 24 26  2  0
 24 27  1  0
 27 28  1  0
 29 28  1  0
 29 30  1  0
 29 31  1  0
 31 32  1  0
  1 32  1  0
 31 33  1  0
 33 34  1  0
 30 35  1  0
 33 35  1  0
 35 36  1  0
 36 37  1  0
 37 38  2  0
 38 39  1  0
 39 40  1  0
 40 41  2  0
 40 42  1  0
 42 43  1  0
 43 44  1  0
 43 45  2  0
 36 46  1  0
 39 46  2  0
 45 46  1  0
  2 47  1  0
  5 48  1  1
  5 49  1  0
  6 50  1  6
  8 51  1  1
 10 52  1  1
 11 53  1  0
 12 54  1  6
 14 55  1  0
 19 56  1  0
 21 57  1  0
 21 58  1  0
 25 59  1  0
 28 60  1  1
 28 61  1  0
 29 62  1  1
 31 63  1  6
 33 64  1  6
 34 65  1  0
 35 66  1  1
 37 67  1  0
 42 68  1  0
 44 69  1  0
 44 70  1  0
M  END
