7JR8_VH7_B_203
     RDKit          3D

 55 58  0  0  0  0  0  0  0  0999 V2000
    5.1617  -28.3998   57.6160 C   0  0  0  0  0  0  0  0  0  0  0  0
    6.1706  -27.6873   58.4995 C   0  0  2  0  0  0  0  0  0  0  0  0
    6.4856  -26.3224   57.9442 C   0  0  0  0  0  0  0  0  0  0  0  0
    2.3107  -24.8517   57.9102 C   0  0  0  0  0  0  0  0  0  0  0  0
    2.9354  -25.3570   56.6228 C   0  0  2  0  0  0  0  0  0  0  0  0
    1.9503  -26.2184   55.9036 C   0  0  0  0  0  0  0  0  0  0  0  0
    4.1947  -26.1934   56.8903 C   0  0  2  0  0  0  0  0  0  0  0  0
    3.9053  -27.5722   57.4372 C   0  0  0  0  0  0  0  0  0  0  0  0
    5.2138  -25.4926   57.7837 C   0  0  0  0  0  0  0  0  0  0  0  0
    8.2651  -28.2702   59.6246 C   0  0  0  0  0  0  0  0  0  0  0  0
    9.2942  -27.2607   59.3385 C   0  0  0  0  0  0  0  0  0  0  0  0
    9.4946  -26.1985   60.2754 C   0  0  0  0  0  0  0  0  0  0  0  0
   10.4487  -25.2635   60.0875 C   0  0  0  0  0  0  0  0  0  0  0  0
   11.2527  -25.3087   58.9400 C   0  0  0  0  0  0  0  0  0  0  0  0
   12.6689  -25.0635   57.3302 C   0  0  0  0  0  0  0  0  0  0  0  0
   11.9399  -26.1780   57.0156 C   0  0  0  0  0  0  0  0  0  0  0  0
   10.0748  -27.3114   58.2332 C   0  0  0  0  0  0  0  0  0  0  0  0
   13.8398  -24.4978   56.6371 C   0  0  0  0  0  0  0  0  0  0  0  0
   13.6904  -23.4312   55.7543 C   0  0  0  0  0  0  0  0  0  0  0  0
   14.7691  -22.9689   55.0235 C   0  0  0  0  0  0  0  0  0  0  0  0
   16.0020  -23.5752   55.1431 C   0  0  0  0  0  0  0  0  0  0  0  0
   16.1571  -24.6545   55.9844 C   0  0  0  0  0  0  0  0  0  0  0  0
   15.0810  -25.1238   56.7231 C   0  0  0  0  0  0  0  0  0  0  0  0
    7.3763  -28.4931   58.6506 N   0  0  0  0  0  0  0  0  0  0  0  0
   12.2450  -24.5204   58.5365 N   0  0  0  0  0  0  0  0  0  0  0  0
   11.0262  -26.3362   58.0353 N   0  0  0  0  0  0  0  0  0  0  0  0
    3.2138  -24.2232   55.7614 O   0  0  0  0  0  0  0  0  0  0  0  0
    8.2790  -28.9273   60.6677 O   0  0  0  0  0  0  0  0  0  0  0  0
    5.6019  -28.5769   56.6570 H   0  0  0  0  0  0  0  0  0  0  0  0
    4.8940  -29.3232   58.0858 H   0  0  0  0  0  0  0  0  0  0  0  0
    5.7439  -27.5539   59.4717 H   0  0  0  0  0  0  0  0  0  0  0  0
    7.1514  -25.8174   58.6126 H   0  0  0  0  0  0  0  0  0  0  0  0
    6.9400  -26.4410   56.9828 H   0  0  0  0  0  0  0  0  0  0  0  0
    2.1008  -25.6803   58.5540 H   0  0  0  0  0  0  0  0  0  0  0  0
    2.9897  -24.1840   58.3980 H   0  0  0  0  0  0  0  0  0  0  0  0
    1.4010  -24.3346   57.6862 H   0  0  0  0  0  0  0  0  0  0  0  0
    1.7154  -27.0710   56.5059 H   0  0  0  0  0  0  0  0  0  0  0  0
    1.0583  -25.6586   55.7144 H   0  0  0  0  0  0  0  0  0  0  0  0
    2.3714  -26.5429   54.9750 H   0  0  0  0  0  0  0  0  0  0  0  0
    4.6270  -26.3087   55.9183 H   0  0  0  0  0  0  0  0  0  0  0  0
    3.2529  -28.0807   56.7586 H   0  0  0  0  0  0  0  0  0  0  0  0
    3.4546  -27.4524   58.4003 H   0  0  0  0  0  0  0  0  0  0  0  0
    4.7787  -25.3339   58.7483 H   0  0  0  0  0  0  0  0  0  0  0  0
    5.4769  -24.5622   57.3253 H   0  0  0  0  0  0  0  0  0  0  0  0
    8.8956  -26.1462   61.1141 H   0  0  0  0  0  0  0  0  0  0  0  0
   10.5865  -24.5171   60.7866 H   0  0  0  0  0  0  0  0  0  0  0  0
   12.0516  -26.7783   56.1836 H   0  0  0  0  0  0  0  0  0  0  0  0
    9.9578  -28.0729   57.5465 H   0  0  0  0  0  0  0  0  0  0  0  0
   12.7676  -22.9824   55.6448 H   0  0  0  0  0  0  0  0  0  0  0  0
   14.6511  -22.1664   54.3854 H   0  0  0  0  0  0  0  0  0  0  0  0
   16.8069  -23.2208   54.6033 H   0  0  0  0  0  0  0  0  0  0  0  0
   17.0768  -25.1156   56.0654 H   0  0  0  0  0  0  0  0  0  0  0  0
   15.2009  -25.9420   57.3404 H   0  0  0  0  0  0  0  0  0  0  0  0
    7.5416  -29.2259   58.0143 H   0  0  0  0  0  0  0  0  0  0  0  0
    2.3975  -23.7200   55.6152 H   0  0  0  0  0  0  0  0  0  0  0  0
  1  2  1  0
  2  3  1  0
  4  5  1  0
  5  6  1  0
  7  5  1  0
  1  8  1  0
  7  8  1  0
  3  9  1  0
  7  9  1  0
 10 11  1  0
 11 12  4  0
 12 13  4  0
 13 14  4  0
 15 16  4  0
 11 17  4  0
 15 18  1  0
 18 19  4  0
 19 20  4  0
 20 21  4  0
 21 22  4  0
 22 23  4  0
 18 23  4  0
 10 24  1  0
  2 24  1  0
 15 25  4  0
 14 25  4  0
 16 26  4  0
 14 26  4  0
 17 26  4  0
  5 27  1  1
 10 28  2  0
  1 29  1  0
  1 30  1  0
  2 31  1  6
  3 32  1  0
  3 33  1  0
  4 34  1  0
  4 35  1  0
  4 36  1  0
  6 37  1  0
  6 38  1  0
  6 39  1  0
  7 40  1  1
  8 41  1  0
  8 42  1  0
  9 43  1  0
  9 44  1  0
 12 45  1  0
 13 46  1  0
 16 47  1  0
 17 48  1  0
 19 49  1  0
 20 50  1  0
 21 51  1  0
 22 52  1  0
 23 53  1  0
 24 54  1  0
 27 55  1  0
M  END
