
     RDKit          3D

 32 34  0  0  0  0  0  0  0  0999 V2000
   23.3649   20.8833   -5.0429 P   0  0  1  0  0  5  0  0  0  0  0  0
   24.8723   21.3831   -5.0774 O   0  0  0  0  0  0  0  0  0  0  0  0
   22.6184   20.1478   -3.4401 S   0  0  0  0  0  0  0  0  0  0  0  0
   22.5869   22.1751   -5.5803 O   0  0  0  0  0  0  0  0  0  0  0  0
   23.2549   19.9383   -6.3331 O   0  0  0  0  0  0  0  0  0  0  0  0
   25.9178   21.0659   -6.2233 P   0  0  1  0  0  5  0  0  0  0  0  0
   26.2255   19.6357   -6.5026 O   0  0  0  0  0  0  0  0  0  0  0  0
   25.2420   21.7425   -7.5220 O   0  0  0  0  0  0  0  0  0  0  0  0
   27.1035   23.5804   -6.2455 P   0  0  1  0  0  5  0  0  0  0  0  0
   27.8404   24.1032   -7.4270 O   0  0  0  0  0  0  0  0  0  0  0  0
   25.5226   23.8451   -6.2885 O   0  0  0  0  0  0  0  0  0  0  0  0
   27.1696   22.0145   -5.9871 O   0  0  0  0  0  0  0  0  0  0  0  0
   27.4858   24.2530   -4.8426 O   0  0  0  0  0  0  0  0  0  0  0  0
   26.4619   24.3070   -3.8560 C   0  0  0  0  0  0  0  0  0  0  0  0
   27.1025   24.2250   -2.4685 C   0  0  1  0  0  0  0  0  0  0  0  0
   28.2564   23.3531   -2.5598 O   0  0  0  0  0  0  0  0  0  0  0  0
   27.6083   25.5768   -1.9731 C   0  0  1  0  0  0  0  0  0  0  0  0
   27.5938   25.6100   -0.5394 O   0  0  0  0  0  0  0  0  0  0  0  0
   29.0451   25.6016   -2.4539 C   0  0  1  0  0  0  0  0  0  0  0  0
   29.8153   26.5066   -1.6601 O   0  0  0  0  0  0  0  0  0  0  0  0
   29.4410   24.1307   -2.3061 C   0  0  2  0  0  0  0  0  0  0  0  0
   30.4919   23.7526   -3.2351 N   0  0  0  0  0  0  0  0  0  0  0  0
   30.3681   23.0171   -4.3868 C   0  0  0  0  0  0  0  0  0  0  0  0
   31.5243   22.8575   -5.0017 N   0  0  0  0  0  0  0  0  0  0  0  0
   32.4220   23.5408   -4.2219 C   0  0  0  0  0  0  0  0  0  0  0  0
   33.8455   23.7423   -4.3755 C   0  0  0  0  0  0  0  0  0  0  0  0
   34.5460   23.2878   -5.2745 O   0  0  0  0  0  0  0  0  0  0  0  0
   34.3722   24.5360   -3.3627 N   0  0  0  0  0  0  0  0  0  0  0  0
   33.6428   25.0633   -2.3157 C   0  0  0  0  0  0  0  0  0  0  0  0
   34.3392   25.8073   -1.4218 N   0  0  0  0  0  0  0  0  0  0  0  0
   32.3544   24.8935   -2.1641 N   0  0  0  0  0  0  0  0  0  0  0  0
   31.8057   24.1197   -3.1346 C   0  0  0  0  0  0  0  0  0  0  0  0
  1  2  1  0
  1  3  2  0
  1  4  1  6
  1  5  1  0
  2  6  1  0
  6  7  2  0
  6  8  1  6
  9 10  2  0
  9 11  1  6
  6 12  1  0
  9 12  1  0
  9 13  1  0
 13 14  1  0
 15 14  1  6
 15 16  1  0
 15 17  1  0
 17 18  1  1
 17 19  1  0
 19 20  1  1
 16 21  1  0
 19 21  1  0
 21 22  1  6
 22 23  4  0
 23 24  4  0
 24 25  4  0
 25 26  4  0
 26 27  2  0
 26 28  4  0
 28 29  4  0
 29 30  1  0
 29 31  4  0
 22 32  4  0
 25 32  4  0
 31 32  4  0
M  END
