7RH3_59O_A_302
     RDKit          3D

 34 36  0  0  0  0  0  0  0  0999 V2000
   10.4605   -9.0884    1.9178 C   0  0  0  0  0  0  0  0  0  0  0  0
   15.4370   -8.9560   -0.9331 C   0  0  0  0  0  0  0  0  0  0  0  0
   20.0898  -13.0550   -3.4221 O   0  0  0  0  0  0  0  0  0  0  0  0
   18.9237  -12.8464   -2.6628 C   0  0  0  0  0  0  0  0  0  0  0  0
   17.7012  -10.8146   -7.3189 C   0  0  0  0  0  0  0  0  0  0  0  0
   16.9578  -11.2725   -2.4707 C   0  0  2  0  0  0  0  0  0  0  0  0
   16.6562   -9.8366   -2.7997 C   0  0  1  0  0  0  0  0  0  0  0  0
   17.5928  -10.4849   -5.0513 C   0  0  1  0  0  0  0  0  0  0  0  0
   16.6603   -9.6355   -4.2726 C   0  0  1  0  0  0  0  0  0  0  0  0
   18.3111  -11.5497   -3.1187 C   0  0  2  0  0  0  0  0  0  0  0  0
   18.0883  -11.6075   -4.4647 O   0  0  0  0  0  0  0  0  0  0  0  0
   16.8709  -10.9425   -6.1860 O   0  0  0  0  0  0  0  0  0  0  0  0
   15.3544   -9.6540   -4.8097 O   0  0  0  0  0  0  0  0  0  0  0  0
   14.8117  -10.8227   -5.3069 C   0  0  0  0  0  0  0  0  0  0  0  0
   15.4250   -9.4115   -2.2423 O   0  0  0  0  0  0  0  0  0  0  0  0
   15.9707  -12.0774   -3.0248 O   0  0  0  0  0  0  0  0  0  0  0  0
   16.4871   -8.5374   -0.3914 O   0  0  0  0  0  0  0  0  0  0  0  0
   15.4670  -11.4172   -6.1872 O   0  0  0  0  0  0  0  0  0  0  0  0
   13.5342  -11.2556   -4.7645 C   0  0  0  0  0  0  0  0  0  0  0  0
   14.1878   -8.9717   -0.1822 C   0  0  0  0  0  0  0  0  0  0  0  0
   13.0395   -9.5015   -0.7261 C   0  0  0  0  0  0  0  0  0  0  0  0
   14.1093   -8.4607    1.0986 C   0  0  0  0  0  0  0  0  0  0  0  0
   11.8307   -9.5537   -0.0812 C   0  0  0  0  0  0  0  0  0  0  0  0
   12.9003   -8.4887    1.8028 C   0  0  0  0  0  0  0  0  0  0  0  0
   11.7879   -9.0272    1.2149 C   0  0  0  0  0  0  0  0  0  0  0  0
   13.4519  -11.5405   -3.4086 C   0  0  0  0  0  0  0  0  0  0  0  0
   12.3805  -11.3648   -5.5037 C   0  0  0  0  0  0  0  0  0  0  0  0
   12.2962  -11.9187   -2.7719 C   0  0  0  0  0  0  0  0  0  0  0  0
   11.2056  -11.7514   -4.8427 C   0  0  0  0  0  0  0  0  0  0  0  0
   12.2636  -11.1215   -6.8810 N   0  0  0  0  0  0  0  0  0  0  0  0
   11.1507  -12.0255   -3.5057 C   0  0  0  0  0  0  0  0  0  0  0  0
    9.6606  -12.5056   -2.7168 Cl  0  0  0  0  0  0  0  0  0  0  0  0
   13.3449  -10.8861   -7.5136 O   0  0  0  0  0  0  0  0  0  0  0  0
   11.1431  -11.1124   -7.6435 O   0  0  0  0  0  0  0  0  0  0  0  0
  3  4  1  0
  6  7  1  0
  8  9  1  0
  7  9  1  0
  6 10  1  0
 10  4  1  1
  8 11  1  0
 10 11  1  0
  5 12  1  0
  8 12  1  6
  9 13  1  6
 13 14  1  0
  2 15  1  0
  7 15  1  6
  6 16  1  6
  2 17  2  0
 14 18  2  0
 14 19  1  0
  2 20  1  0
 20 21  2  0
 20 22  1  0
 21 23  1  0
 22 24  2  0
 23 25  2  0
  1 25  1  0
 24 25  1  0
 19 26  2  0
 19 27  1  0
 26 28  1  0
 27 29  2  0
 27 30  1  0
 28 31  2  0
 29 31  1  0
 31 32  1  0
 30 33  2  0
 30 34  1  0
M  CHG  2  30   1  34  -1
M  END
$$$$
