7XG5_PLP_A_401
     RDKit          3D

 16 16  0  0  0  0  0  0  0  0999 V2000
  -28.7801  -43.2068   39.2052 N   0  0  0  0  0  0  0  0  0  0  0  0
  -28.4332  -42.3985   38.2069 C   0  0  0  0  0  0  0  0  0  0  0  0
  -28.2767  -40.9419   38.4544 C   0  0  0  0  0  0  0  0  0  0  0  0
  -28.2287  -42.9445   36.9684 C   0  0  0  0  0  0  0  0  0  0  0  0
  -27.8710  -42.1401   35.9220 O   0  0  0  0  0  0  0  0  0  0  0  0
  -28.3695  -44.3128   36.7125 C   0  0  0  0  0  0  0  0  0  0  0  0
  -28.1390  -44.8139   35.3837 C   0  0  0  0  0  0  0  0  0  0  0  0
  -27.7056  -44.1340   34.4171 O   0  0  0  0  0  0  0  0  0  0  0  0
  -28.7297  -45.1261   37.7642 C   0  0  0  0  0  0  0  0  0  0  0  0
  -28.9235  -44.5303   38.9869 C   0  0  0  0  0  0  0  0  0  0  0  0
  -28.8940  -46.5762   37.5794 C   0  0  0  0  0  0  0  0  0  0  0  0
  -29.9335  -46.8187   36.6674 O   0  0  0  0  0  0  0  0  0  0  0  0
  -30.1318  -48.4889   36.5574 P   0  0  2  0  0  5  0  0  0  0  0  0
  -31.2691  -48.7618   35.5952 O   0  0  0  0  0  0  0  0  0  0  0  0
  -30.4926  -49.1612   38.0861 O   0  0  0  0  0  0  0  0  0  0  0  0
  -28.7416  -49.2132   35.9113 O   0  0  0  0  0  0  0  0  0  0  0  0
  1  2  2  0
  3  2  1  1
  2  4  1  0
  4  5  1  0
  4  6  2  0
  6  7  1  0
  7  8  2  0
  6  9  1  0
  1 10  1  0
  9 10  2  0
  9 11  1  0
 11 12  1  6
 12 13  1  0
 13 14  2  0
 13 15  1  1
 13 16  1  0
M  END
$$$$
