
     RDKit          3D

 18 20  0  0  0  0  0  0  0  0999 V2000
    1.0322   68.1817   60.6094 C   0  0  0  0  0  0  0  0  0  0  0  0
    0.6030   68.3369   59.4724 O   0  0  0  0  0  0  0  0  0  0  0  0
    2.3696   68.1046   60.8978 N   0  0  0  0  0  0  0  0  0  0  0  0
    0.1194   68.0546   61.7664 C   0  0  0  0  0  0  0  0  0  0  0  0
    0.6252   67.8840   62.9960 C   0  0  0  0  0  0  0  0  0  0  0  0
    2.0653   67.8263   63.2348 C   0  0  0  0  0  0  0  0  0  0  0  0
    2.8886   67.9303   62.1637 C   0  0  0  0  0  0  0  0  0  0  0  0
    4.3961   67.8386   62.2667 C   0  0  0  0  0  0  0  0  0  0  0  0
    4.8759   67.3353   63.6429 C   0  0  2  0  0  0  0  0  0  0  0  0
    4.6860   65.8340   63.7658 C   0  0  0  0  0  0  0  0  0  0  0  0
    6.0264   69.5296   65.5795 C   0  0  0  0  0  0  0  0  0  0  0  0
    4.6188   69.0260   65.5291 C   0  0  0  0  0  0  0  0  0  0  0  0
    4.0939   68.0845   64.7132 C   0  0  0  0  0  0  0  0  0  0  0  0
    2.6169   67.6331   64.6730 C   0  0  1  0  0  0  0  0  0  0  0  0
    1.8057   68.3867   65.6527 N   0  0  0  0  0  0  0  0  0  0  0  0
    2.5773   66.1137   65.0622 C   0  0  0  0  0  0  0  0  0  0  0  0
    3.6545   65.2634   64.4154 C   0  0  0  0  0  0  0  0  0  0  0  0
    3.4982   63.7776   64.5396 C   0  0  0  0  0  0  0  0  0  0  0  0
  1  2  2  0
  1  3  4  0
  1  4  4  0
  4  5  4  0
  5  6  4  0
  3  7  4  0
  6  7  4  0
  7  8  1  0
  9  8  1  6
  9 10  1  0
 11 12  1  0
  9 13  1  0
 12 13  2  0
  6 14  1  0
 13 14  1  0
 14 15  1  1
 14 16  1  0
 10 17  2  0
 16 17  1  0
 17 18  1  0
M  END
