7UEY_N0R_A_403
     RDKit          3D

 47 49  0  0  0  0  0  0  0  0999 V2000
  -21.8203   19.8801  -15.5839 C   0  0  0  0  0  0  0  0  0  0  0  0
  -21.0906   18.5570  -15.5161 C   0  0  0  0  0  0  0  0  0  0  0  0
  -23.3572   18.9514  -17.2260 C   0  0  0  0  0  0  0  0  0  0  0  0
  -22.6242   17.6344  -17.1319 C   0  0  0  0  0  0  0  0  0  0  0  0
  -25.3977   22.5267  -19.7011 C   0  0  0  0  0  0  0  0  0  0  0  0
  -24.9011   23.5673  -18.9255 C   0  0  0  0  0  0  0  0  0  0  0  0
  -24.5885   23.3200  -17.6023 C   0  0  0  0  0  0  0  0  0  0  0  0
  -24.7664   22.0623  -17.0652 C   0  0  0  0  0  0  0  0  0  0  0  0
  -24.4049   21.8362  -15.6116 C   0  0  0  0  0  0  0  0  0  0  0  0
  -24.2158   20.3414  -15.3656 C   0  0  0  0  0  0  0  0  0  0  0  0
  -20.2023   17.1638  -17.4130 C   0  0  0  0  0  0  0  0  0  0  0  0
  -18.4086   15.5495  -18.3524 C   0  0  0  0  0  0  0  0  0  0  0  0
  -18.1868   16.8928  -18.6216 C   0  0  0  0  0  0  0  0  0  0  0  0
  -19.1583   17.7685  -18.1121 C   0  0  0  0  0  0  0  0  0  0  0  0
  -26.2494   23.8887  -21.7052 C   0  0  0  0  0  0  0  0  0  0  0  0
  -25.2179   24.9556  -22.0700 C   0  0  0  0  0  0  0  0  0  0  0  0
  -25.2469   21.0249  -17.8378 C   0  0  0  0  0  0  0  0  0  0  0  0
  -25.5584   21.2613  -19.1653 C   0  0  0  0  0  0  0  0  0  0  0  0
  -23.1384   19.7194  -16.0645 N   0  0  0  0  0  0  0  0  0  0  0  0
  -21.2136   17.9951  -16.8763 N   0  0  0  0  0  0  0  0  0  0  0  0
  -20.3455   15.8945  -17.2116 N   0  0  0  0  0  0  0  0  0  0  0  0
  -19.4159   15.0842  -17.6889 N   0  0  0  0  0  0  0  0  0  0  0  0
  -25.7197   22.6970  -21.0990 N   0  0  0  0  0  0  0  0  0  0  0  0
  -27.4111   24.0166  -21.8986 O   0  0  0  0  0  0  0  0  0  0  0  0
  -24.7673   24.6587  -23.3684 O   0  0  0  0  0  0  0  0  0  0  0  0
  -24.8968   19.6999  -14.6509 O   0  0  0  0  0  0  0  0  0  0  0  0
  -17.2404   14.3802  -18.9498 Cl  0  0  0  0  0  0  0  0  0  0  0  0
  -21.2887   20.5373  -16.2399 H   0  0  0  0  0  0  0  0  0  0  0  0
  -21.8703   20.2872  -14.5957 H   0  0  0  0  0  0  0  0  0  0  0  0
  -21.5476   17.9098  -14.7970 H   0  0  0  0  0  0  0  0  0  0  0  0
  -20.0704   18.6707  -15.2143 H   0  0  0  0  0  0  0  0  0  0  0  0
  -24.4053   18.7647  -17.3330 H   0  0  0  0  0  0  0  0  0  0  0  0
  -22.9916   19.4924  -18.0738 H   0  0  0  0  0  0  0  0  0  0  0  0
  -22.7122   17.0894  -18.0484 H   0  0  0  0  0  0  0  0  0  0  0  0
  -23.0234   17.0081  -16.3617 H   0  0  0  0  0  0  0  0  0  0  0  0
  -24.7683   24.5074  -19.3302 H   0  0  0  0  0  0  0  0  0  0  0  0
  -24.2194   24.0817  -17.0119 H   0  0  0  0  0  0  0  0  0  0  0  0
  -25.1909   22.2048  -14.9863 H   0  0  0  0  0  0  0  0  0  0  0  0
  -23.4973   22.3547  -15.3830 H   0  0  0  0  0  0  0  0  0  0  0  0
  -17.3684   17.2233  -19.1564 H   0  0  0  0  0  0  0  0  0  0  0  0
  -19.1036   18.7903  -18.2459 H   0  0  0  0  0  0  0  0  0  0  0  0
  -24.3999   24.9278  -21.3809 H   0  0  0  0  0  0  0  0  0  0  0  0
  -25.6472   25.9348  -22.0274 H   0  0  0  0  0  0  0  0  0  0  0  0
  -25.3725   20.0848  -17.4310 H   0  0  0  0  0  0  0  0  0  0  0  0
  -25.9111   20.4925  -19.7565 H   0  0  0  0  0  0  0  0  0  0  0  0
  -25.5621   21.9264  -21.6912 H   0  0  0  0  0  0  0  0  0  0  0  0
  -24.3832   23.7681  -23.3816 H   0  0  0  0  0  0  0  0  0  0  0  0
  1  2  1  0
  3  4  1  0
  5  6  4  0
  6  7  4  0
  7  8  4  0
  8  9  1  0
  9 10  1  0
 12 13  4  0
 13 14  4  0
 11 14  4  0
 15 16  1  0
  8 17  4  0
 17 18  4  0
  5 18  4  0
  1 19  1  0
  3 19  1  0
 10 19  1  0
 11 20  1  0
  2 20  1  0
  4 20  1  0
 11 21  4  0
 12 22  4  0
 21 22  4  0
  5 23  1  0
 15 23  1  0
 15 24  2  0
 16 25  1  0
 10 26  2  0
 12 27  1  0
  1 28  1  0
  1 29  1  0
  2 30  1  0
  2 31  1  0
  3 32  1  0
  3 33  1  0
  4 34  1  0
  4 35  1  0
  6 36  1  0
  7 37  1  0
  9 38  1  0
  9 39  1  0
 13 40  1  0
 14 41  1  0
 16 42  1  0
 16 43  1  0
 17 44  1  0
 18 45  1  0
 23 46  1  0
 25 47  1  0
M  END
