8DW5_FQ7_A_201
     RDKit          3D

 18 19  0  0  0  0  0  0  0  0999 V2000
   22.1954    9.3352   11.2090 C   0  0  0  0  0  0  0  0  0  0  0  0
   22.5327    8.1159   11.7574 C   0  0  0  0  0  0  0  0  0  0  0  0
   21.6947    7.6005   12.7208 C   0  0  0  0  0  0  0  0  0  0  0  0
   19.0669   10.3829   12.8518 N   0  0  0  0  0  0  0  0  0  0  0  0
   19.9654    6.6836   14.7415 O   0  0  0  0  0  0  0  0  0  0  0  0
   19.6451    7.7539   14.1831 C   0  0  0  0  0  0  0  0  0  0  0  0
   18.6001    8.3866   14.5237 O   0  0  0  0  0  0  0  0  0  0  0  0
   20.5597    8.3000   13.1123 C   0  0  0  0  0  0  0  0  0  0  0  0
   21.0522   10.0246   11.6100 C   0  0  0  0  0  0  0  0  0  0  0  0
   20.2232    9.5152   12.5770 C   0  0  0  0  0  0  0  0  0  0  0  0
   18.7452   11.7010   12.4030 C   0  0  0  0  0  0  0  0  0  0  0  0
   18.9140   12.0996   11.0665 C   0  0  0  0  0  0  0  0  0  0  0  0
   18.5770   13.3795   10.7235 C   0  0  0  0  0  0  0  0  0  0  0  0
   18.7932   13.9934    9.0773 Cl  0  0  0  0  0  0  0  0  0  0  0  0
   18.0129   14.2462   11.6395 C   0  0  0  0  0  0  0  0  0  0  0  0
   17.8233   13.7943   12.9397 C   0  0  0  0  0  0  0  0  0  0  0  0
   17.1219   14.8666   14.1353 Cl  0  0  0  0  0  0  0  0  0  0  0  0
   18.1831   12.5497   13.3364 C   0  0  0  0  0  0  0  0  0  0  0  0
  1  2  2  0
  2  3  1  0
  5  6  1  0
  6  7  2  0
  6  8  1  0
  3  8  2  0
  1  9  1  0
  9 10  2  0
  4 10  1  0
  8 10  1  0
  4 11  1  0
 11 12  2  0
 12 13  1  0
 13 14  1  0
 13 15  2  0
 15 16  1  0
 16 17  1  0
 16 18  2  0
 11 18  1  0
M  END
