7B0E_C2E_A_401
     RDKit          3D

 70 76  0  0  0  0  0  0  0  0999 V2000
  -26.1744  -21.1649   -2.2977 P   0  0  2  0  0  5  0  0  0  0  0  0
  -26.5398  -21.0887   -3.7985 O   0  0  0  0  0  0  0  0  0  0  0  0
  -27.0662  -20.3905   -1.4077 O   0  0  0  0  0  0  0  0  0  0  0  0
  -24.6341  -20.7751   -2.2085 O   0  0  0  0  0  0  0  0  0  0  0  0
  -23.9838  -20.4935   -0.9689 C   0  0  0  0  0  0  0  0  0  0  0  0
  -22.5703  -20.0170   -1.1779 C   0  0  2  0  0  0  0  0  0  0  0  0
  -22.5858  -18.7337   -1.8415 O   0  0  0  0  0  0  0  0  0  0  0  0
  -21.7078  -20.8570   -2.1050 C   0  0  2  0  0  0  0  0  0  0  0  0
  -21.2358  -22.0385   -1.4836 O   0  0  0  0  0  0  0  0  0  0  0  0
  -20.5982  -19.8714   -2.4627 C   0  0  2  0  0  0  0  0  0  0  0  0
  -19.6667  -19.6375   -1.4064 O   0  0  0  0  0  0  0  0  0  0  0  0
  -21.4204  -18.5873   -2.6381 C   0  0  1  0  0  0  0  0  0  0  0  0
  -21.8499  -18.3390   -4.0190 N   0  0  0  0  0  4  0  0  0  0  0  0
  -21.6938  -17.1943   -4.8508 C   0  0  0  0  0  0  0  0  0  0  0  0
  -22.1922  -17.4125   -6.0964 N   0  0  0  0  0  0  0  0  0  0  0  0
  -22.6839  -18.7321   -6.0520 C   0  0  0  0  0  0  0  0  0  0  0  0
  -23.3071  -19.4997   -7.0813 C   0  0  0  0  0  0  0  0  0  0  0  0
  -23.5725  -19.2142   -8.2346 O   0  0  0  0  0  0  0  0  0  0  0  0
  -23.6545  -20.8247   -6.6430 N   0  0  0  0  0  4  0  0  0  0  0  0
  -23.4109  -21.2840   -5.3608 C   0  0  0  0  0  0  0  0  0  0  0  0
  -23.7631  -22.5765   -5.0694 N   0  0  0  0  0  0  0  0  0  0  0  0
  -22.8293  -20.5653   -4.3650 N   0  0  0  0  0  0  0  0  0  0  0  0
  -22.4852  -19.3021   -4.7880 C   0  0  0  0  0  0  0  0  0  0  0  0
  -21.1610  -23.4448   -2.2214 P   0  0  1  0  0  5  0  0  0  0  0  0
  -20.5759  -23.2388   -3.6391 O   0  0  0  0  0  0  0  0  0  0  0  0
  -20.5153  -24.4757   -1.3260 O   0  0  0  0  0  0  0  0  0  0  0  0
  -22.6823  -23.7909   -2.5024 O   0  0  0  0  0  0  0  0  0  0  0  0
  -23.5022  -24.3584   -1.4777 C   0  0  0  0  0  0  0  0  0  0  0  0
  -24.8531  -24.7510   -2.0141 C   0  0  2  0  0  0  0  0  0  0  0  0
  -24.7115  -25.8106   -2.9847 O   0  0  0  0  0  0  0  0  0  0  0  0
  -25.5705  -23.6781   -2.8089 C   0  0  2  0  0  0  0  0  0  0  0  0
  -26.1372  -22.7250   -1.9450 O   0  0  0  0  0  0  0  0  0  0  0  0
  -26.6071  -24.4977   -3.5709 C   0  0  2  0  0  0  0  0  0  0  0  0
  -27.6978  -24.8823   -2.7380 O   0  0  0  0  0  0  0  0  0  0  0  0
  -25.7740  -25.7403   -3.9224 C   0  0  1  0  0  0  0  0  0  0  0  0
  -25.1782  -25.6557   -5.2571 N   0  0  0  0  0  4  0  0  0  0  0  0
  -25.0783  -26.6183   -6.3016 C   0  0  0  0  0  0  0  0  0  0  0  0
  -24.5195  -26.0755   -7.4202 N   0  0  0  0  0  0  0  0  0  0  0  0
  -24.2579  -24.7342   -7.0678 C   0  0  0  0  0  0  0  0  0  0  0  0
  -23.7040  -23.6701   -7.8490 C   0  0  0  0  0  0  0  0  0  0  0  0
  -23.3490  -23.6338   -9.0177 O   0  0  0  0  0  0  0  0  0  0  0  0
  -23.6100  -22.4343   -7.1130 N   0  0  0  0  0  4  0  0  0  0  0  0
  -24.0218  -22.3080   -5.7920 C   0  0  0  0  0  0  0  0  0  0  0  0
  -23.9084  -21.0777   -5.1857 N   0  0  0  0  0  0  0  0  0  0  0  0
  -24.5499  -23.3099   -5.0427 N   0  0  0  0  0  0  0  0  0  0  0  0
  -24.6467  -24.4825   -5.7440 C   0  0  0  0  0  0  0  0  0  0  0  0
  -26.5783  -20.1597   -4.0751 H   0  0  0  0  0  0  0  0  0  0  0  0
  -24.5335  -19.7338   -0.4536 H   0  0  0  0  0  0  0  0  0  0  0  0
  -23.9504  -21.3970   -0.3967 H   0  0  0  0  0  0  0  0  0  0  0  0
  -22.1644  -20.0372   -0.1881 H   0  0  0  0  0  0  0  0  0  0  0  0
  -22.2249  -21.2392   -2.9602 H   0  0  0  0  0  0  0  0  0  0  0  0
  -20.0115  -20.2128   -3.2898 H   0  0  0  0  0  0  0  0  0  0  0  0
  -20.1410  -19.3232   -0.6208 H   0  0  0  0  0  0  0  0  0  0  0  0
  -20.8013  -17.7622   -2.3538 H   0  0  0  0  0  0  0  0  0  0  0  0
  -21.2573  -16.3101   -4.5465 H   0  0  0  0  0  0  0  0  0  0  0  0
  -24.0858  -21.4335   -7.2854 H   0  0  0  0  0  0  0  0  0  0  0  0
  -24.1876  -23.1381   -5.7576 H   0  0  0  0  0  0  0  0  0  0  0  0
  -23.5915  -22.9431   -4.1720 H   0  0  0  0  0  0  0  0  0  0  0  0
  -19.6334  -23.0193   -3.5712 H   0  0  0  0  0  0  0  0  0  0  0  0
  -23.0173  -25.2272   -1.0842 H   0  0  0  0  0  0  0  0  0  0  0  0
  -23.6429  -23.6243   -0.7120 H   0  0  0  0  0  0  0  0  0  0  0  0
  -25.4026  -24.9981   -1.1298 H   0  0  0  0  0  0  0  0  0  0  0  0
  -24.9494  -23.1001   -3.4607 H   0  0  0  0  0  0  0  0  0  0  0  0
  -27.0469  -23.9762   -4.3952 H   0  0  0  0  0  0  0  0  0  0  0  0
  -27.3611  -25.3637   -1.9662 H   0  0  0  0  0  0  0  0  0  0  0  0
  -26.4167  -26.5955   -3.8994 H   0  0  0  0  0  0  0  0  0  0  0  0
  -25.3886  -27.5994   -6.2221 H   0  0  0  0  0  0  0  0  0  0  0  0
  -23.2373  -21.6440   -7.5668 H   0  0  0  0  0  0  0  0  0  0  0  0
  -23.5321  -20.3164   -5.6836 H   0  0  0  0  0  0  0  0  0  0  0  0
  -24.2036  -20.9590   -4.2540 H   0  0  0  0  0  0  0  0  0  0  0  0
  1  2  1  1
  1  3  2  0
  1  4  1  0
  4  5  1  0
  6  5  1  0
  6  7  1  0
  6  8  1  0
  8  9  1  0
  8 10  1  0
 10 11  1  0
 10 12  1  0
  7 12  1  0
 12 13  1  0
 13 14  4  0
 14 15  4  0
 15 16  4  0
 16 17  4  0
 17 18  2  0
 17 19  4  0
 19 20  4  0
 20 21  1  0
 20 22  4  0
 13 23  4  0
 22 23  4  0
 16 23  4  0
  9 24  1  0
 24 25  1  1
 24 26  2  0
 24 27  1  0
 27 28  1  0
 29 28  1  0
 29 30  1  0
 29 31  1  0
 31 32  1  0
  1 32  1  0
 31 33  1  0
 33 34  1  0
 30 35  1  0
 33 35  1  0
 35 36  1  0
 36 37  4  0
 37 38  4  0
 38 39  4  0
 39 40  4  0
 40 41  2  0
 40 42  4  0
 42 43  4  0
 43 44  1  0
 43 45  4  0
 36 46  4  0
 39 46  4  0
 45 46  4  0
  2 47  1  0
  5 48  1  0
  5 49  1  0
  6 50  1  6
  8 51  1  1
 10 52  1  1
 11 53  1  0
 12 54  1  6
 14 55  1  0
 19 56  1  0
 21 57  1  0
 21 58  1  0
 25 59  1  0
 28 60  1  0
 28 61  1  0
 29 62  1  6
 31 63  1  1
 33 64  1  1
 34 65  1  0
 35 66  1  1
 37 67  1  0
 42 68  1  0
 44 69  1  0
 44 70  1  0
M  CHG  4  13   1  19   1  36   1  42   1
M  END
