
     RDKit          3D

 21 24  0  0  0  0  0  0  0  0999 V2000
  -27.2868    4.9330   -5.0844 C   0  0  0  0  0  0  0  0  0  0  0  0
  -26.5183    6.1356   -5.6275 C   0  0  0  0  0  0  0  0  0  0  0  0
  -25.0472    6.0508   -5.2973 C   0  0  0  0  0  0  0  0  0  0  0  0
  -24.4145    7.0415   -4.9326 O   0  0  0  0  0  0  0  0  0  0  0  0
  -24.3591    4.7314   -5.5605 C   0  0  0  0  0  0  0  0  0  0  0  0
  -25.1751    3.5805   -4.9655 C   0  0  2  0  0  0  0  0  0  0  0  0
  -24.4645    2.2395   -5.1814 C   0  0  0  0  0  0  0  0  0  0  0  0
  -25.2006    1.1039   -4.4764 C   0  0  0  0  0  0  0  0  0  0  0  0
  -26.6757    1.0202   -4.8911 C   0  0  2  0  0  0  0  0  0  0  0  0
  -27.3961    2.3941   -4.6958 C   0  0  1  0  0  0  0  0  0  0  0  0
  -26.6591    3.5591   -5.4581 C   0  0  1  0  0  0  0  0  0  0  0  0
  -28.9185    2.2999   -4.9854 C   0  0  0  0  0  0  0  0  0  0  0  0
  -29.6106    1.1327   -4.2576 C   0  0  0  0  0  0  0  0  0  0  0  0
  -28.8940   -0.1982   -4.5183 C   0  0  1  0  0  0  0  0  0  0  0  0
  -27.4243   -0.0439   -4.0815 C   0  0  1  0  0  0  0  0  0  0  0  0
  -26.9023   -1.4785   -4.0754 C   0  0  0  0  0  0  0  0  0  0  0  0
  -28.1114   -2.3135   -3.6163 C   0  0  0  0  0  0  0  0  0  0  0  0
  -29.3134   -1.3496   -3.5841 C   0  0  2  0  0  0  0  0  0  0  0  0
  -30.5080   -1.9860   -3.9946 O   0  0  0  0  0  0  0  0  0  0  0  0
  -29.0890   -0.6088   -6.0003 C   0  0  0  0  0  0  0  0  0  0  0  0
  -26.7610    3.3675   -6.9918 C   0  0  0  0  0  0  0  0  0  0  0  0
  1  2  1  0
  2  3  1  0
  3  4  2  0
  3  5  1  0
  6  5  1  6
  6  7  1  0
  7  8  1  0
  9  8  1  1
  9 10  1  0
  1 11  1  0
  6 11  1  0
 10 11  1  0
 10 12  1  6
 12 13  1  0
 13 14  1  0
  9 15  1  0
 14 15  1  0
 15 16  1  6
 16 17  1  0
 14 18  1  0
 17 18  1  0
 18 19  1  6
 14 20  1  6
 11 21  1  6
M  END
