7AA0_R6B_BBB_201
     RDKit          3D

 26 28  0  0  0  0  0  0  0  0999 V2000
    6.5649  -10.5829   17.6072 C   0  0  0  0  0  0  0  0  0  0  0  0
    7.4028   -8.2727   17.1401 C   0  0  0  0  0  0  0  0  0  0  0  0
    5.9644  -11.0400   18.7915 C   0  0  0  0  0  0  0  0  0  0  0  0
    4.8186  -11.8504   18.7148 C   0  0  0  0  0  0  0  0  0  0  0  0
    4.7820  -10.6655   21.7853 C   0  0  0  0  0  0  0  0  0  0  0  0
    7.8073   -9.6866   17.5962 C   0  0  1  0  0  0  0  0  0  0  0  0
    8.4258   -9.5915   18.9994 C   0  0  0  0  0  0  0  0  0  0  0  0
    7.3694   -9.4858   20.0690 C   0  0  0  0  0  0  0  0  0  0  0  0
    6.0527  -11.3095   21.2766 C   0  0  2  0  0  0  0  0  0  0  0  0
    7.1422  -11.3383   22.3262 C   0  0  0  0  0  0  0  0  0  0  0  0
    8.8687  -10.2478   16.6335 C   0  0  0  0  0  0  0  0  0  0  0  0
    6.4788  -10.6461   20.0109 N   0  0  0  0  0  0  0  0  0  0  0  0
    6.0049  -10.9640   16.3801 C   0  0  0  0  0  0  0  0  0  0  0  0
    4.2872  -12.2018   17.4892 C   0  0  0  0  0  0  0  0  0  0  0  0
    4.8879  -11.8001   16.2972 C   0  0  0  0  0  0  0  0  0  0  0  0
    4.3054  -12.1439   14.9667 C   0  0  0  0  0  0  0  0  0  0  0  0
    4.6377  -11.3788   13.8558 C   0  0  0  0  0  0  0  0  0  0  0  0
    4.0765  -11.6165   12.6155 C   0  0  0  0  0  0  0  0  0  0  0  0
    3.1402  -12.6231   12.4170 C   0  0  0  0  0  0  0  0  0  0  0  0
    2.7773  -13.3760   13.5349 C   0  0  0  0  0  0  0  0  0  0  0  0
    3.3426  -13.1366   14.7817 C   0  0  0  0  0  0  0  0  0  0  0  0
    2.5876  -12.8285   11.0710 C   0  0  0  0  0  0  0  0  0  0  0  0
    1.7059  -13.7086   10.6967 C   0  0  0  0  0  0  0  0  0  0  0  0
    1.1222  -13.7850    9.3118 C   0  0  0  0  0  0  0  0  0  0  0  0
    1.8714  -13.6077    8.2854 O   0  0  0  0  0  0  0  0  0  0  0  0
   -0.0484  -14.0571    9.2440 O   0  0  0  0  0  0  0  0  0  0  0  0
  1  3  1  0
  3  4  2  0
  1  6  1  0
  6  2  1  6
  6  7  1  0
  7  8  1  0
  9  5  1  1
  9 10  1  0
  6 11  1  0
  8 12  1  0
  9 12  1  0
  3 12  1  0
  1 13  2  0
  4 14  1  0
 13 15  1  0
 14 15  2  0
 15 16  1  0
 16 17  2  0
 17 18  1  0
 18 19  2  0
 19 20  1  0
 16 21  1  0
 20 21  2  0
 19 22  1  0
 22 23  2  0
 23 24  1  0
 24 25  1  0
 24 26  2  0
M  END
