7QSW_CAP_C_501
     RDKit          3D

 21 20  0  0  0  0  0  0  0  0999 V2000
   79.6529   98.4760   63.8650 C   0  0  0  0  0  0  0  0  0  0  0  0
   79.4568   97.3520   62.8511 C   0  0  1  0  0  0  0  0  0  0  0  0
   78.8022   96.1562   63.4497 C   0  0  1  0  0  0  0  0  0  0  0  0
   78.8459   95.0120   62.4720 C   0  0  1  0  0  0  0  0  0  0  0  0
   78.5875   93.6635   63.0981 C   0  0  0  0  0  0  0  0  0  0  0  0
   78.4891   97.9151   61.8484 C   0  0  0  0  0  0  0  0  0  0  0  0
   80.3493   99.4868   63.2193 O   0  0  0  0  0  0  0  0  0  0  0  0
   80.6834   97.1071   62.2966 O   0  0  0  0  0  0  0  0  0  0  0  0
   79.2535   95.8144   64.7164 O   0  0  0  0  0  0  0  0  0  0  0  0
   77.8187   95.1667   61.5042 O   0  0  0  0  0  0  0  0  0  0  0  0
   78.7278   92.7332   62.0381 O   0  0  0  0  0  0  0  0  0  0  0  0
   77.2389   97.9124   62.1034 O   0  0  0  0  0  0  0  0  0  0  0  0
   78.9236   98.4385   60.6503 O   0  0  0  0  0  0  0  0  0  0  0  0
   80.8117  100.7459   64.2322 P   0  0  1  0  0  5  0  0  0  0  0  0
   78.4145   91.1655   62.6330 P   0  0  1  0  0  5  0  0  0  0  0  0
   79.6516  101.5334   64.7577 O   0  0  0  0  0  0  0  0  0  0  0  0
   81.5894  100.0521   65.5839 O   0  0  0  0  0  0  0  0  0  0  0  0
   81.9107  101.8047   63.5232 O   0  0  0  0  0  0  0  0  0  0  0  0
   79.3055   90.8805   63.8374 O   0  0  0  0  0  0  0  0  0  0  0  0
   76.8041   91.0464   63.0720 O   0  0  0  0  0  0  0  0  0  0  0  0
   78.7495   90.0386   61.4070 O   0  0  0  0  0  0  0  0  0  0  0  0
  1  2  1  0
  2  3  1  0
  3  4  1  0
  4  5  1  0
  2  6  1  0
  1  7  1  1
  2  8  1  6
  3  9  1  1
  4 10  1  6
  5 11  1  1
  6 12  2  0
  6 13  1  0
  7 14  1  0
 11 15  1  0
 14 16  2  0
 14 17  1  1
 14 18  1  0
 15 19  2  0
 15 20  1  1
 15 21  1  0
M  END
$$$$
