1MZC_BNE_B_1003
     RDKit          3D

 35 38  0  0  0  0  0  0  0  0999 V2000
   30.3263  134.4260    6.0815 C   0  0  1  0  0  0  0  0  0  0  0  0
   29.1254  135.1707    6.5661 C   0  0  0  0  0  0  0  0  0  0  0  0
   31.4016  135.3814    5.8489 C   0  0  0  0  0  0  0  0  0  0  0  0
   30.6155  133.3722    7.0816 C   0  0  0  0  0  0  0  0  0  0  0  0
   29.8722  133.9130    4.7336 C   0  0  0  0  0  0  0  0  0  0  0  0
   28.2996  135.8902    5.7280 C   0  0  0  0  0  0  0  0  0  0  0  0
   28.7734  135.1901    7.9121 C   0  0  0  0  0  0  0  0  0  0  0  0
   32.7613  135.2683    6.2969 N   0  0  0  0  0  0  0  0  0  0  0  0
   31.2233  136.4428    5.2023 O   0  0  0  0  0  0  0  0  0  0  0  0
   31.8735  132.6060    6.9659 C   0  0  0  0  0  0  0  0  0  0  0  0
   30.7840  132.9875    4.0283 C   0  0  0  0  0  0  0  0  0  0  0  0
   27.1888  136.5919    6.1859 C   0  0  0  0  0  0  0  0  0  0  0  0
   27.6673  135.8878    8.3740 C   0  0  0  0  0  0  0  0  0  0  0  0
   33.6460  134.1458    6.4669 C   0  0  0  0  0  0  0  0  0  0  0  0
   33.3957  136.5522    6.6587 C   0  0  0  0  0  0  0  0  0  0  0  0
   33.0633  133.3051    7.5959 C   0  0  0  0  0  0  0  0  0  0  0  0
   26.3959  137.3025    5.2786 O   0  0  0  0  0  0  0  0  0  0  0  0
   26.8566  136.6006    7.5174 C   0  0  0  0  0  0  0  0  0  0  0  0
   25.1913  136.7804    4.8552 C   0  0  0  0  0  0  0  0  0  0  0  0
   24.6750  137.3177    3.6706 C   0  0  0  0  0  0  0  0  0  0  0  0
   24.5121  135.7885    5.5383 C   0  0  0  0  0  0  0  0  0  0  0  0
   23.4787  136.8816    3.1427 C   0  0  0  0  0  0  0  0  0  0  0  0
   25.3667  138.3649    2.9549 C   0  0  0  0  0  0  0  0  0  0  0  0
   23.2947  135.3381    5.0099 C   0  0  0  0  0  0  0  0  0  0  0  0
   22.8110  135.8845    3.8430 C   0  0  0  0  0  0  0  0  0  0  0  0
   25.9155  139.1956    2.3649 N   0  0  0  0  0  0  0  0  0  0  0  0
   22.5227  134.2551    5.7169 C   0  0  2  0  0  0  0  0  0  0  0  0
   22.4517  134.4950    7.1610 C   0  0  0  0  0  0  0  0  0  0  0  0
   23.0916  132.9408    5.2939 C   0  0  0  0  0  0  0  0  0  0  0  0
   21.1726  134.2838    5.1835 N   0  0  0  0  0  0  0  0  0  0  0  0
   22.0536  135.6085    7.8321 N   0  0  0  0  0  0  0  0  0  0  0  0
   22.7973  133.5608    8.1163 C   0  0  0  0  0  0  0  0  0  0  0  0
   22.1637  135.3325    9.1460 C   0  0  0  0  0  0  0  0  0  0  0  0
   21.6038  136.8396    7.2358 C   0  0  0  0  0  0  0  0  0  0  0  0
   22.6171  134.0844    9.3415 N   0  0  0  0  0  0  0  0  0  0  0  0
  1  2  1  0
  1  3  1  0
  1  4  1  0
  1  5  1  6
  2  6  2  0
  2  7  1  0
  3  8  1  0
  3  9  2  0
  4 10  1  0
  5 11  1  0
  6 12  1  0
  7 13  2  0
  8 14  1  0
  8 15  1  0
 10 16  1  0
 14 16  1  0
 12 17  1  0
 12 18  2  0
 13 18  1  0
 17 19  1  0
 19 20  2  0
 19 21  1  0
 20 22  1  0
 20 23  1  0
 21 24  2  0
 22 25  2  0
 24 25  1  0
 23 26  3  0
 24 27  1  0
 27 28  1  0
 27 29  1  1
 27 30  1  0
 28 31  1  0
 28 32  2  0
 31 33  1  0
 31 34  1  0
 32 35  1  0
 33 35  2  0
M  END
$$$$
