1MZC_BNE_B_1003
     RDKit          3D

 35 38  0  0  0  0  0  0  0  0999 V2000
   25.3610  132.1322    0.2769 C   0  0  1  0  0  0  0  0  0  0  0  0
   24.3884  131.6022   -0.7256 C   0  0  0  0  0  0  0  0  0  0  0  0
   24.6182  132.6092    1.4361 C   0  0  0  0  0  0  0  0  0  0  0  0
   26.3378  131.0517    0.5464 C   0  0  0  0  0  0  0  0  0  0  0  0
   25.9323  133.3416   -0.4282 C   0  0  0  0  0  0  0  0  0  0  0  0
   23.0743  132.0160   -0.7880 C   0  0  0  0  0  0  0  0  0  0  0  0
   24.7561  130.6385   -1.6594 C   0  0  0  0  0  0  0  0  0  0  0  0
   24.8990  132.3180    2.8140 N   0  0  0  0  0  0  0  0  0  0  0  0
   23.6149  133.3559    1.3252 O   0  0  0  0  0  0  0  0  0  0  0  0
   27.3023  131.2226    1.6526 C   0  0  0  0  0  0  0  0  0  0  0  0
   26.2324  133.1965   -1.8685 C   0  0  0  0  0  0  0  0  0  0  0  0
   22.1692  131.5106   -1.7161 C   0  0  0  0  0  0  0  0  0  0  0  0
   23.8580  130.1314   -2.5867 C   0  0  0  0  0  0  0  0  0  0  0  0
   26.1243  132.1184    3.5425 C   0  0  0  0  0  0  0  0  0  0  0  0
   23.7019  132.1969    3.6708 C   0  0  0  0  0  0  0  0  0  0  0  0
   26.7397  130.8321    3.0063 C   0  0  0  0  0  0  0  0  0  0  0  0
   20.8497  131.9751   -1.7206 O   0  0  0  0  0  0  0  0  0  0  0  0
   22.5489  130.5597   -2.6298 C   0  0  0  0  0  0  0  0  0  0  0  0
   20.3879  132.7581   -0.6830 C   0  0  0  0  0  0  0  0  0  0  0  0
   19.0397  133.1274   -0.7493 C   0  0  0  0  0  0  0  0  0  0  0  0
   21.1843  133.1695    0.3698 C   0  0  0  0  0  0  0  0  0  0  0  0
   18.4578  133.9090    0.2257 C   0  0  0  0  0  0  0  0  0  0  0  0
   18.2003  132.7173   -1.8512 C   0  0  0  0  0  0  0  0  0  0  0  0
   20.6021  133.9645    1.3664 C   0  0  0  0  0  0  0  0  0  0  0  0
   19.2736  134.3123    1.2756 C   0  0  0  0  0  0  0  0  0  0  0  0
   17.5254  132.4073   -2.7388 N   0  0  0  0  0  0  0  0  0  0  0  0
   21.4297  134.4313    2.5351 C   0  0  2  0  0  0  0  0  0  0  0  0
   20.6188  134.5849    3.7462 C   0  0  0  0  0  0  0  0  0  0  0  0
   22.1962  135.6360    2.0975 C   0  0  0  0  0  0  0  0  0  0  0  0
   22.4268  133.4050    2.7815 N   0  0  0  0  0  0  0  0  0  0  0  0
   19.7634  135.5839    4.0908 N   0  0  0  0  0  0  0  0  0  0  0  0
   20.5996  133.6737    4.7826 C   0  0  0  0  0  0  0  0  0  0  0  0
   19.2570  135.2652    5.2977 C   0  0  0  0  0  0  0  0  0  0  0  0
   19.4676  136.7529    3.3037 C   0  0  0  0  0  0  0  0  0  0  0  0
   19.7558  134.0998    5.7388 N   0  0  0  0  0  0  0  0  0  0  0  0
  1  2  1  0
  1  3  1  0
  1  4  1  0
  1  5  1  6
  2  6  2  0
  2  7  1  0
  3  8  1  0
  3  9  2  0
  4 10  1  0
  5 11  1  0
  6 12  1  0
  7 13  2  0
  8 14  1  0
  8 15  1  0
 10 16  1  0
 14 16  1  0
 12 17  1  0
 12 18  2  0
 13 18  1  0
 17 19  1  0
 19 20  2  0
 19 21  1  0
 20 22  1  0
 20 23  1  0
 21 24  2  0
 22 25  2  0
 24 25  1  0
 23 26  3  0
 24 27  1  0
 27 28  1  0
 27 29  1  6
 27 30  1  0
 28 31  1  0
 28 32  2  0
 31 33  1  0
 31 34  1  0
 32 35  1  0
 33 35  2  0
M  END
$$$$
