1MZC_BNE_B_1003
     RDKit          3D

 35 38  0  0  0  0  0  0  0  0999 V2000
   18.5040  134.2540   -3.3865 C   0  0  1  0  0  0  0  0  0  0  0  0
   18.8668  133.0598   -2.5655 C   0  0  0  0  0  0  0  0  0  0  0  0
   18.6753  135.4480   -2.5690 C   0  0  0  0  0  0  0  0  0  0  0  0
   19.3274  134.2006   -4.6168 C   0  0  0  0  0  0  0  0  0  0  0  0
   17.0207  134.0615   -3.6078 C   0  0  0  0  0  0  0  0  0  0  0  0
   18.7982  133.0470   -1.1882 C   0  0  0  0  0  0  0  0  0  0  0  0
   19.3118  131.8794   -3.1524 C   0  0  0  0  0  0  0  0  0  0  0  0
   19.3590  136.6537   -2.9444 N   0  0  0  0  0  0  0  0  0  0  0  0
   18.2156  135.5307   -1.4036 O   0  0  0  0  0  0  0  0  0  0  0  0
   19.3268  135.3654   -5.5258 C   0  0  0  0  0  0  0  0  0  0  0  0
   16.2330  133.5597   -2.4619 C   0  0  0  0  0  0  0  0  0  0  0  0
   19.1484  131.9359   -0.4273 C   0  0  0  0  0  0  0  0  0  0  0  0
   19.6622  130.7690   -2.3988 C   0  0  0  0  0  0  0  0  0  0  0  0
   19.4914  137.3557   -4.1940 C   0  0  0  0  0  0  0  0  0  0  0  0
   20.0743  137.3220   -1.8383 C   0  0  0  0  0  0  0  0  0  0  0  0
   20.3028  136.4508   -5.1126 C   0  0  0  0  0  0  0  0  0  0  0  0
   19.0561  131.9943    0.9673 O   0  0  0  0  0  0  0  0  0  0  0  0
   19.5861  130.7796   -1.0229 C   0  0  0  0  0  0  0  0  0  0  0  0
   18.9437  133.2135    1.6031 C   0  0  0  0  0  0  0  0  0  0  0  0
   19.0002  133.1810    3.0010 C   0  0  0  0  0  0  0  0  0  0  0  0
   18.7828  134.4093    0.9280 C   0  0  0  0  0  0  0  0  0  0  0  0
   18.8992  134.3316    3.7532 C   0  0  0  0  0  0  0  0  0  0  0  0
   19.1528  131.9370    3.7195 C   0  0  0  0  0  0  0  0  0  0  0  0
   18.6791  135.5851    1.6837 C   0  0  0  0  0  0  0  0  0  0  0  0
   18.7382  135.5234    3.0573 C   0  0  0  0  0  0  0  0  0  0  0  0
   19.2761  130.9310    4.2782 N   0  0  0  0  0  0  0  0  0  0  0  0
   18.5085  136.9117    0.9910 C   0  0  2  0  0  0  0  0  0  0  0  0
   17.2740  137.5843    1.4051 C   0  0  0  0  0  0  0  0  0  0  0  0
   18.6755  136.6839   -0.4754 C   0  0  0  0  0  0  0  0  0  0  0  0
   19.6334  137.7404    1.3860 N   0  0  0  0  0  0  0  0  0  0  0  0
   17.0185  138.9131    1.5382 N   0  0  0  0  0  0  0  0  0  0  0  0
   16.1095  136.9230    1.7385 C   0  0  0  0  0  0  0  0  0  0  0  0
   15.7374  139.0258    1.9392 C   0  0  0  0  0  0  0  0  0  0  0  0
   17.9515  139.9823    1.2936 C   0  0  0  0  0  0  0  0  0  0  0  0
   15.1631  137.8195    2.0678 N   0  0  0  0  0  0  0  0  0  0  0  0
  1  2  1  0
  1  3  1  0
  1  4  1  0
  1  5  1  6
  2  6  2  0
  2  7  1  0
  3  8  1  0
  3  9  2  0
  4 10  1  0
  5 11  1  0
  6 12  1  0
  7 13  2  0
  8 14  1  0
  8 15  1  0
 10 16  1  0
 14 16  1  0
 12 17  1  0
 12 18  2  0
 13 18  1  0
 17 19  1  0
 19 20  2  0
 19 21  1  0
 20 22  1  0
 20 23  1  0
 21 24  2  0
 22 25  2  0
 24 25  1  0
 23 26  3  0
 24 27  1  0
 27 28  1  0
 27 29  1  6
 27 30  1  0
 28 31  1  0
 28 32  2  0
 31 33  1  0
 31 34  1  0
 32 35  1  0
 33 35  2  0
M  END
$$$$
