1MZC_BNE_B_1003
     RDKit          3D

 35 38  0  0  0  0  0  0  0  0999 V2000
   17.3259  134.1776   -6.6111 C   0  0  1  0  0  0  0  0  0  0  0  0
   16.2809  134.8518   -5.7834 C   0  0  0  0  0  0  0  0  0  0  0  0
   17.2934  134.7464   -7.9522 C   0  0  0  0  0  0  0  0  0  0  0  0
   18.6110  134.3220   -5.8886 C   0  0  0  0  0  0  0  0  0  0  0  0
   16.8068  132.7605   -6.7039 C   0  0  0  0  0  0  0  0  0  0  0  0
   15.7325  134.2795   -4.6548 C   0  0  0  0  0  0  0  0  0  0  0  0
   15.7865  136.1092   -6.1158 C   0  0  0  0  0  0  0  0  0  0  0  0
   18.4190  135.2051   -8.7169 N   0  0  0  0  0  0  0  0  0  0  0  0
   16.2216  134.8929   -8.5895 O   0  0  0  0  0  0  0  0  0  0  0  0
   19.8602  133.9248   -6.5702 C   0  0  0  0  0  0  0  0  0  0  0  0
   15.5716  132.5506   -7.4886 C   0  0  0  0  0  0  0  0  0  0  0  0
   14.7509  134.9066   -3.8938 C   0  0  0  0  0  0  0  0  0  0  0  0
   14.8081  136.7388   -5.3607 C   0  0  0  0  0  0  0  0  0  0  0  0
   19.7812  134.7520   -8.8222 C   0  0  0  0  0  0  0  0  0  0  0  0
   18.1412  136.3753   -9.5744 C   0  0  0  0  0  0  0  0  0  0  0  0
   20.4270  135.0095   -7.4666 C   0  0  0  0  0  0  0  0  0  0  0  0
   14.2377  134.2658   -2.7612 O   0  0  0  0  0  0  0  0  0  0  0  0
   14.2742  136.1469   -4.2366 C   0  0  0  0  0  0  0  0  0  0  0  0
   15.0938  133.7233   -1.8253 C   0  0  0  0  0  0  0  0  0  0  0  0
   14.8967  132.3699   -1.5288 C   0  0  0  0  0  0  0  0  0  0  0  0
   16.0929  134.4472   -1.2011 C   0  0  0  0  0  0  0  0  0  0  0  0
   15.6856  131.7110   -0.6104 C   0  0  0  0  0  0  0  0  0  0  0  0
   13.8470  131.6057   -2.1622 C   0  0  0  0  0  0  0  0  0  0  0  0
   16.9007  133.7864   -0.2656 C   0  0  0  0  0  0  0  0  0  0  0  0
   16.6842  132.4547    0.0061 C   0  0  0  0  0  0  0  0  0  0  0  0
   12.9929  131.0053   -2.6618 N   0  0  0  0  0  0  0  0  0  0  0  0
   18.0052  134.5333    0.4349 C   0  0  2  0  0  0  0  0  0  0  0  0
   18.2885  133.9672    1.7567 C   0  0  0  0  0  0  0  0  0  0  0  0
   17.6651  135.9871    0.3992 C   0  0  0  0  0  0  0  0  0  0  0  0
   19.1949  134.3925   -0.3855 N   0  0  0  0  0  0  0  0  0  0  0  0
   17.6496  134.1743    2.9389 N   0  0  0  0  0  0  0  0  0  0  0  0
   19.3117  133.0768    2.0116 C   0  0  0  0  0  0  0  0  0  0  0  0
   18.2829  133.4242    3.8614 C   0  0  0  0  0  0  0  0  0  0  0  0
   16.5143  135.0352    3.1470 C   0  0  0  0  0  0  0  0  0  0  0  0
   19.3031  132.7448    3.3145 N   0  0  0  0  0  0  0  0  0  0  0  0
  1  2  1  0
  1  3  1  0
  1  4  1  0
  1  5  1  6
  2  6  2  0
  2  7  1  0
  3  8  1  0
  3  9  2  0
  4 10  1  0
  5 11  1  0
  6 12  1  0
  7 13  2  0
  8 14  1  0
  8 15  1  0
 10 16  1  0
 14 16  1  0
 12 17  1  0
 12 18  2  0
 13 18  1  0
 17 19  1  0
 19 20  2  0
 19 21  1  0
 20 22  1  0
 20 23  1  0
 21 24  2  0
 22 25  2  0
 24 25  1  0
 23 26  3  0
 24 27  1  0
 27 28  1  0
 27 29  1  1
 27 30  1  0
 28 31  1  0
 28 32  2  0
 31 33  1  0
 31 34  1  0
 32 35  1  0
 33 35  2  0
M  END
$$$$
