1MZC_BNE_B_1003
     RDKit          3D

 35 38  0  0  0  0  0  0  0  0999 V2000
   24.1981  143.9321    0.3998 C   0  0  1  0  0  0  0  0  0  0  0  0
   23.1240  143.8001   -0.6301 C   0  0  0  0  0  0  0  0  0  0  0  0
   24.2224  142.7165    1.2027 C   0  0  0  0  0  0  0  0  0  0  0  0
   25.4538  144.2449   -0.3211 C   0  0  0  0  0  0  0  0  0  0  0  0
   23.6761  145.0478    1.2768 C   0  0  0  0  0  0  0  0  0  0  0  0
   22.8732  144.7667   -1.5812 C   0  0  0  0  0  0  0  0  0  0  0  0
   22.2964  142.6828   -0.6814 C   0  0  0  0  0  0  0  0  0  0  0  0
   25.3802  141.9416    1.5510 N   0  0  0  0  0  0  0  0  0  0  0  0
   23.1778  142.2141    1.6853 O   0  0  0  0  0  0  0  0  0  0  0  0
   26.7274  144.2322    0.4276 C   0  0  0  0  0  0  0  0  0  0  0  0
   23.7167  146.4147    0.7153 C   0  0  0  0  0  0  0  0  0  0  0  0
   21.8639  144.6443   -2.5311 C   0  0  0  0  0  0  0  0  0  0  0  0
   21.2888  142.5557   -1.6261 C   0  0  0  0  0  0  0  0  0  0  0  0
   26.7432  142.2969    1.8474 C   0  0  0  0  0  0  0  0  0  0  0  0
   25.1430  140.4856    1.6263 C   0  0  0  0  0  0  0  0  0  0  0  0
   27.3352  142.8483    0.5565 C   0  0  0  0  0  0  0  0  0  0  0  0
   21.6644  145.6660   -3.4656 O   0  0  0  0  0  0  0  0  0  0  0  0
   21.0562  143.5354   -2.5668 C   0  0  0  0  0  0  0  0  0  0  0  0
   22.4371  146.8079   -3.4182 C   0  0  0  0  0  0  0  0  0  0  0  0
   22.2199  147.7356   -4.4432 C   0  0  0  0  0  0  0  0  0  0  0  0
   23.3767  147.0480   -2.4326 C   0  0  0  0  0  0  0  0  0  0  0  0
   22.9286  148.9160   -4.5089 C   0  0  0  0  0  0  0  0  0  0  0  0
   21.2523  147.4906   -5.4876 C   0  0  0  0  0  0  0  0  0  0  0  0
   24.1026  148.2454   -2.4904 C   0  0  0  0  0  0  0  0  0  0  0  0
   23.8680  149.1396   -3.5099 C   0  0  0  0  0  0  0  0  0  0  0  0
   20.4742  147.3134   -6.3258 N   0  0  0  0  0  0  0  0  0  0  0  0
   25.1326  148.5522   -1.4350 C   0  0  2  0  0  0  0  0  0  0  0  0
   25.4731  149.9774   -1.4083 C   0  0  0  0  0  0  0  0  0  0  0  0
   26.2721  147.6053   -1.6227 C   0  0  0  0  0  0  0  0  0  0  0  0
   24.5422  148.2007   -0.1559 N   0  0  0  0  0  0  0  0  0  0  0  0
   26.2478  150.6955   -2.2643 N   0  0  0  0  0  0  0  0  0  0  0  0
   25.0227  150.8604   -0.4481 C   0  0  0  0  0  0  0  0  0  0  0  0
   26.2505  151.9658   -1.8161 C   0  0  0  0  0  0  0  0  0  0  0  0
   26.9288  150.1799   -3.4236 C   0  0  0  0  0  0  0  0  0  0  0  0
   25.5066  152.0882   -0.7056 N   0  0  0  0  0  0  0  0  0  0  0  0
  1  2  1  0
  1  3  1  0
  1  4  1  0
  1  5  1  1
  2  6  2  0
  2  7  1  0
  3  8  1  0
  3  9  2  0
  4 10  1  0
  5 11  1  0
  6 12  1  0
  7 13  2  0
  8 14  1  0
  8 15  1  0
 10 16  1  0
 14 16  1  0
 12 17  1  0
 12 18  2  0
 13 18  1  0
 17 19  1  0
 19 20  2  0
 19 21  1  0
 20 22  1  0
 20 23  1  0
 21 24  2  0
 22 25  2  0
 24 25  1  0
 23 26  3  0
 24 27  1  0
 27 28  1  0
 27 29  1  6
 27 30  1  0
 28 31  1  0
 28 32  2  0
 31 33  1  0
 31 34  1  0
 32 35  1  0
 33 35  2  0
M  END
$$$$
