1MZC_BNE_B_1003
     RDKit          3D

 35 38  0  0  0  0  0  0  0  0999 V2000
   17.1424  138.1561    1.2156 C   0  0  1  0  0  0  0  0  0  0  0  0
   16.5115  137.3637    0.1175 C   0  0  0  0  0  0  0  0  0  0  0  0
   16.2362  138.1703    2.3566 C   0  0  0  0  0  0  0  0  0  0  0  0
   18.4756  137.5620    1.4682 C   0  0  0  0  0  0  0  0  0  0  0  0
   17.1702  139.5531    0.6377 C   0  0  0  0  0  0  0  0  0  0  0  0
   17.2265  136.5166   -0.7030 C   0  0  0  0  0  0  0  0  0  0  0  0
   15.1487  137.4454   -0.1505 C   0  0  0  0  0  0  0  0  0  0  0  0
   16.5755  137.8969    3.7249 N   0  0  0  0  0  0  0  0  0  0  0  0
   15.0152  138.4369    2.2362 O   0  0  0  0  0  0  0  0  0  0  0  0
   19.2475  138.0167    2.6431 C   0  0  0  0  0  0  0  0  0  0  0  0
   17.3782  139.6693   -0.8213 C   0  0  0  0  0  0  0  0  0  0  0  0
   16.6362  135.7895   -1.7320 C   0  0  0  0  0  0  0  0  0  0  0  0
   14.5552  136.7229   -1.1750 C   0  0  0  0  0  0  0  0  0  0  0  0
   17.7503  138.1604    4.5138 C   0  0  0  0  0  0  0  0  0  0  0  0
   15.5178  137.2087    4.4926 C   0  0  0  0  0  0  0  0  0  0  0  0
   18.8648  137.3039    3.9263 C   0  0  0  0  0  0  0  0  0  0  0  0
   17.4236  134.9501   -2.5272 O   0  0  0  0  0  0  0  0  0  0  0  0
   15.2903  135.8827   -1.9829 C   0  0  0  0  0  0  0  0  0  0  0  0
   18.6483  134.5108   -2.0685 C   0  0  0  0  0  0  0  0  0  0  0  0
   19.7481  134.8110   -2.8801 C   0  0  0  0  0  0  0  0  0  0  0  0
   18.8099  133.8138   -0.8854 C   0  0  0  0  0  0  0  0  0  0  0  0
   21.0257  134.4269   -2.5334 C   0  0  0  0  0  0  0  0  0  0  0  0
   19.5916  135.5253   -4.1260 C   0  0  0  0  0  0  0  0  0  0  0  0
   20.1050  133.4186   -0.5239 C   0  0  0  0  0  0  0  0  0  0  0  0
   21.1683  133.7278   -1.3412 C   0  0  0  0  0  0  0  0  0  0  0  0
   19.4783  136.1112   -5.1177 N   0  0  0  0  0  0  0  0  0  0  0  0
   20.3299  132.6622    0.7591 C   0  0  2  0  0  0  0  0  0  0  0  0
   21.0629  133.4664    1.7408 C   0  0  0  0  0  0  0  0  0  0  0  0
   20.9306  131.3406    0.4086 C   0  0  0  0  0  0  0  0  0  0  0  0
   19.0188  132.3604    1.3052 N   0  0  0  0  0  0  0  0  0  0  0  0
   22.3801  133.8024    1.7701 N   0  0  0  0  0  0  0  0  0  0  0  0
   20.4835  134.0439    2.8523 C   0  0  0  0  0  0  0  0  0  0  0  0
   22.5660  134.5569    2.8704 C   0  0  0  0  0  0  0  0  0  0  0  0
   23.3730  133.4159    0.8014 C   0  0  0  0  0  0  0  0  0  0  0  0
   21.4178  134.7167    3.5467 N   0  0  0  0  0  0  0  0  0  0  0  0
  1  2  1  0
  1  3  1  0
  1  4  1  0
  1  5  1  6
  2  6  2  0
  2  7  1  0
  3  8  1  0
  3  9  2  0
  4 10  1  0
  5 11  1  0
  6 12  1  0
  7 13  2  0
  8 14  1  0
  8 15  1  0
 10 16  1  0
 14 16  1  0
 12 17  1  0
 12 18  2  0
 13 18  1  0
 17 19  1  0
 19 20  2  0
 19 21  1  0
 20 22  1  0
 20 23  1  0
 21 24  2  0
 22 25  2  0
 24 25  1  0
 23 26  3  0
 24 27  1  0
 27 28  1  0
 27 29  1  6
 27 30  1  0
 28 31  1  0
 28 32  2  0
 31 33  1  0
 31 34  1  0
 32 35  1  0
 33 35  2  0
M  END
$$$$
