1MZC_BNE_B_1003
     RDKit          3D

 35 38  0  0  0  0  0  0  0  0999 V2000
   22.1434  133.0331   -2.9484 C   0  0  1  0  0  0  0  0  0  0  0  0
   21.5001  134.3744   -2.8110 C   0  0  0  0  0  0  0  0  0  0  0  0
   23.5564  133.2252   -3.2479 C   0  0  0  0  0  0  0  0  0  0  0  0
   21.8518  132.2831   -1.7047 C   0  0  0  0  0  0  0  0  0  0  0  0
   21.4847  132.4793   -4.1917 C   0  0  0  0  0  0  0  0  0  0  0  0
   20.4575  134.6213   -1.9427 C   0  0  0  0  0  0  0  0  0  0  0  0
   21.9154  135.4636   -3.5707 C   0  0  0  0  0  0  0  0  0  0  0  0
   24.6649  132.5730   -2.6091 N   0  0  0  0  0  0  0  0  0  0  0  0
   23.9483  134.0197   -4.1376 O   0  0  0  0  0  0  0  0  0  0  0  0
   22.5343  130.9932   -1.4739 C   0  0  0  0  0  0  0  0  0  0  0  0
   20.0787  132.8671   -4.4330 C   0  0  0  0  0  0  0  0  0  0  0  0
   19.8539  135.8696   -1.8268 C   0  0  0  0  0  0  0  0  0  0  0  0
   21.3173  136.7100   -3.4591 C   0  0  0  0  0  0  0  0  0  0  0  0
   24.8450  131.2502   -2.0710 C   0  0  0  0  0  0  0  0  0  0  0  0
   25.8718  133.4130   -2.4688 C   0  0  0  0  0  0  0  0  0  0  0  0
   23.9166  131.1445   -0.8676 C   0  0  0  0  0  0  0  0  0  0  0  0
   18.7986  136.0479   -0.9260 O   0  0  0  0  0  0  0  0  0  0  0  0
   20.2759  136.9331   -2.5846 C   0  0  0  0  0  0  0  0  0  0  0  0
   18.8705  135.5054    0.3404 C   0  0  0  0  0  0  0  0  0  0  0  0
   18.2178  134.2803    0.5183 C   0  0  0  0  0  0  0  0  0  0  0  0
   19.5373  136.1119    1.3889 C   0  0  0  0  0  0  0  0  0  0  0  0
   18.2152  133.6354    1.7365 C   0  0  0  0  0  0  0  0  0  0  0  0
   17.5047  133.6432   -0.5645 C   0  0  0  0  0  0  0  0  0  0  0  0
   19.5406  135.4642    2.6318 C   0  0  0  0  0  0  0  0  0  0  0  0
   18.8906  134.2600    2.7779 C   0  0  0  0  0  0  0  0  0  0  0  0
   16.9209  133.1475   -1.4323 N   0  0  0  0  0  0  0  0  0  0  0  0
   20.2589  136.0847    3.8013 C   0  0  2  0  0  0  0  0  0  0  0  0
   20.6210  135.0831    4.8081 C   0  0  0  0  0  0  0  0  0  0  0  0
   19.4369  137.2354    4.2815 C   0  0  0  0  0  0  0  0  0  0  0  0
   21.4814  136.6708    3.2815 N   0  0  0  0  0  0  0  0  0  0  0  0
   21.4232  133.9918    4.6897 N   0  0  0  0  0  0  0  0  0  0  0  0
   20.1743  135.1051    6.1137 C   0  0  0  0  0  0  0  0  0  0  0  0
   21.4451  133.3910    5.8952 C   0  0  0  0  0  0  0  0  0  0  0  0
   22.1100  133.5727    3.4955 C   0  0  0  0  0  0  0  0  0  0  0  0
   20.6873  134.0564    6.7808 N   0  0  0  0  0  0  0  0  0  0  0  0
  1  2  1  0
  1  3  1  0
  1  4  1  0
  1  5  1  6
  2  6  2  0
  2  7  1  0
  3  8  1  0
  3  9  2  0
  4 10  1  0
  5 11  1  0
  6 12  1  0
  7 13  2  0
  8 14  1  0
  8 15  1  0
 10 16  1  0
 14 16  1  0
 12 17  1  0
 12 18  2  0
 13 18  1  0
 17 19  1  0
 19 20  2  0
 19 21  1  0
 20 22  1  0
 20 23  1  0
 21 24  2  0
 22 25  2  0
 24 25  1  0
 23 26  3  0
 24 27  1  0
 27 28  1  0
 27 29  1  1
 27 30  1  0
 28 31  1  0
 28 32  2  0
 31 33  1  0
 31 34  1  0
 32 35  1  0
 33 35  2  0
M  END
$$$$
