1MZC_BNE_B_1003
     RDKit          3D

 35 38  0  0  0  0  0  0  0  0999 V2000
   19.3557  133.5961   -0.3851 C   0  0  1  0  0  0  0  0  0  0  0  0
   19.1361  135.0090   -0.8177 C   0  0  0  0  0  0  0  0  0  0  0  0
   20.7900  133.3444   -0.3344 C   0  0  0  0  0  0  0  0  0  0  0  0
   18.6318  133.4173    0.8949 C   0  0  0  0  0  0  0  0  0  0  0  0
   18.7947  132.8066   -1.5461 C   0  0  0  0  0  0  0  0  0  0  0  0
   18.2415  135.8542   -0.1954 C   0  0  0  0  0  0  0  0  0  0  0  0
   19.8238  135.5566   -1.8962 C   0  0  0  0  0  0  0  0  0  0  0  0
   21.5146  132.7242    0.7392 N   0  0  0  0  0  0  0  0  0  0  0  0
   21.5578  133.6650   -1.2747 O   0  0  0  0  0  0  0  0  0  0  0  0
   18.8375  132.1713    1.6619 C   0  0  0  0  0  0  0  0  0  0  0  0
   17.8322  133.5031   -2.4258 C   0  0  0  0  0  0  0  0  0  0  0  0
   18.0320  137.1658   -0.6095 C   0  0  0  0  0  0  0  0  0  0  0  0
   19.6188  136.8634   -2.3133 C   0  0  0  0  0  0  0  0  0  0  0  0
   21.1850  131.6703    1.6625 C   0  0  0  0  0  0  0  0  0  0  0  0
   22.8737  133.2622    0.9522 C   0  0  0  0  0  0  0  0  0  0  0  0
   20.0680  132.2074    2.5484 C   0  0  0  0  0  0  0  0  0  0  0  0
   17.1064  137.9668    0.0679 O   0  0  0  0  0  0  0  0  0  0  0  0
   18.7187  137.6897   -1.6760 C   0  0  0  0  0  0  0  0  0  0  0  0
   17.2515  138.1999    1.4198 C   0  0  0  0  0  0  0  0  0  0  0  0
   16.0706  138.4555    2.1259 C   0  0  0  0  0  0  0  0  0  0  0  0
   18.4746  138.1898    2.0646 C   0  0  0  0  0  0  0  0  0  0  0  0
   16.0811  138.7043    3.4816 C   0  0  0  0  0  0  0  0  0  0  0  0
   14.7878  138.4841    1.4620 C   0  0  0  0  0  0  0  0  0  0  0  0
   18.4961  138.4417    3.4431 C   0  0  0  0  0  0  0  0  0  0  0  0
   17.3192  138.6897    4.1121 C   0  0  0  0  0  0  0  0  0  0  0  0
   13.7683  138.5162    0.9153 N   0  0  0  0  0  0  0  0  0  0  0  0
   19.8049  138.4351    4.1885 C   0  0  2  0  0  0  0  0  0  0  0  0
   19.8303  137.4040    5.2297 C   0  0  0  0  0  0  0  0  0  0  0  0
   20.0796  139.8327    4.6376 C   0  0  0  0  0  0  0  0  0  0  0  0
   20.8405  138.1283    3.2181 N   0  0  0  0  0  0  0  0  0  0  0  0
   19.3322  137.4423    6.4942 N   0  0  0  0  0  0  0  0  0  0  0  0
   20.3977  136.1565    5.0665 C   0  0  0  0  0  0  0  0  0  0  0  0
   19.6014  136.2480    7.0560 C   0  0  0  0  0  0  0  0  0  0  0  0
   18.6503  138.5560    7.1010 C   0  0  0  0  0  0  0  0  0  0  0  0
   20.2530  135.4464    6.1990 N   0  0  0  0  0  0  0  0  0  0  0  0
  1  2  1  0
  1  3  1  0
  1  4  1  0
  1  5  1  6
  2  6  2  0
  2  7  1  0
  3  8  1  0
  3  9  2  0
  4 10  1  0
  5 11  1  0
  6 12  1  0
  7 13  2  0
  8 14  1  0
  8 15  1  0
 10 16  1  0
 14 16  1  0
 12 17  1  0
 12 18  2  0
 13 18  1  0
 17 19  1  0
 19 20  2  0
 19 21  1  0
 20 22  1  0
 20 23  1  0
 21 24  2  0
 22 25  2  0
 24 25  1  0
 23 26  3  0
 24 27  1  0
 27 28  1  0
 27 29  1  1
 27 30  1  0
 28 31  1  0
 28 32  2  0
 31 33  1  0
 31 34  1  0
 32 35  1  0
 33 35  2  0
M  END
$$$$
