7A1P_QW2_A_505
     RDKit          3D

 13 12  0  0  0  0  0  0  0  0999 V2000
   19.6770  -24.2012    6.7966 C   0  0  0  0  0  0  0  0  0  0  0  0
   19.2254  -24.4455    5.3873 C   0  0  0  0  0  0  0  0  0  0  0  0
   19.9013  -23.5725    4.3696 C   0  0  0  0  0  0  0  0  0  0  0  0
   22.2949  -24.8757    9.5168 C   0  0  0  0  0  0  0  0  0  0  0  0
   17.6122  -24.9359    7.9632 C   0  0  0  0  0  0  0  0  0  0  0  0
   19.0465  -25.1497    7.7635 C   0  0  2  0  0  0  0  0  0  0  0  0
   19.7974  -25.2196    9.0732 C   0  0  0  0  0  0  0  0  0  0  0  0
   21.2052  -25.6575    8.9072 C   0  0  0  0  0  0  0  0  0  0  0  0
   21.5490  -26.6809    8.2636 O   0  0  0  0  0  0  0  0  0  0  0  0
   22.0118  -23.8261   10.1515 O   0  0  0  0  0  0  0  0  0  0  0  0
   23.6254  -25.3158    9.3786 O   0  0  0  0  0  0  0  0  0  0  0  0
   17.1122  -24.1048    8.7715 O   0  0  0  0  0  0  0  0  0  0  0  0
   16.7282  -25.7112    7.1999 O   0  0  0  0  0  0  0  0  0  0  0  0
  1  2  1  6
  2  3  1  6
  6  1  1  0
  6  5  1  1
  6  7  1  0
  7  8  1  6
  4  8  1  0
  8  9  2  0
  4 10  2  0
  4 11  1  0
  5 12  2  0
  5 13  1  0
M  END
$$$$
