7SIU_9ID_A_901
     RDKit          3D

 54 57  0  0  0  0  0  0  0  0999 V2000
   -5.7553   -0.2149   13.3673 N   0  0  0  0  0  0  0  0  0  0  0  0
   -8.8310   -0.8150   11.3799 N   0  0  0  0  0  0  0  0  0  0  0  0
   -7.1397    0.0711    9.9719 C   0  0  0  0  0  0  0  0  0  0  0  0
   -8.4565   -0.3818   10.1442 C   0  0  0  0  0  0  0  0  0  0  0  0
   -7.9896   -0.8195   12.4488 C   0  0  0  0  0  0  0  0  0  0  0  0
   -8.4856   -1.3765   13.7305 C   0  0  0  0  0  0  0  0  0  0  0  0
   -9.4358   -0.4144    9.0179 C   0  0  0  0  0  0  0  0  0  0  0  0
  -11.0317    0.8018    7.5008 C   0  0  0  0  0  0  0  0  0  0  0  0
   -9.7970   -1.7447    8.3766 C   0  0  0  0  0  0  0  0  0  0  0  0
  -10.7650   -5.2186    7.6132 C   0  0  0  0  0  0  0  0  0  0  0  0
   -8.8934   -6.6236    6.9337 C   0  0  0  0  0  0  0  0  0  0  0  0
  -11.3103   -6.3104    8.3245 C   0  0  0  0  0  0  0  0  0  0  0  0
   -3.6922   -1.4717   12.6988 C   0  0  0  0  0  0  0  0  0  0  0  0
  -12.3457   -3.6612    8.4486 O   0  0  0  0  0  0  0  0  0  0  0  0
  -11.4525   -3.9065    7.5930 C   0  0  0  0  0  0  0  0  0  0  0  0
  -10.6533   -7.5445    8.3314 C   0  0  0  0  0  0  0  0  0  0  0  0
   -9.4451   -7.7011    7.6351 C   0  0  0  0  0  0  0  0  0  0  0  0
   -9.5446   -5.3864    6.9266 C   0  0  0  0  0  0  0  0  0  0  0  0
  -11.0918   -2.9003    6.6345 N   0  0  0  0  0  0  0  0  0  0  0  0
  -10.5299   -1.6048    7.0303 C   0  0  1  0  0  0  0  0  0  0  0  0
  -11.6405   -0.5568    7.1558 C   0  0  0  0  0  0  0  0  0  0  0  0
  -10.0668    0.7225    8.6528 C   0  0  0  0  0  0  0  0  0  0  0  0
   -6.2927    0.0845   11.0321 N   0  0  0  0  0  0  0  0  0  0  0  0
   -9.7753   -1.0088   14.2283 N   0  0  0  0  0  0  0  0  0  0  0  0
   -7.8043   -2.2236   14.3694 O   0  0  0  0  0  0  0  0  0  0  0  0
   -6.6706   -0.3426   12.2678 C   0  0  0  0  0  0  0  0  0  0  0  0
   -4.3346   -0.3729   13.2279 C   0  0  0  0  0  0  0  0  0  0  0  0
   -3.3483    0.5483   13.5084 C   0  0  0  0  0  0  0  0  0  0  0  0
   -2.3637   -1.2295   12.6837 N   0  0  0  0  0  0  0  0  0  0  0  0
   -2.1701   -0.0183   13.1868 N   0  0  0  0  0  4  0  0  0  0  0  0
   -0.8674    0.6218   13.2770 C   0  0  0  0  0  0  0  0  0  0  0  0
   -6.1226    0.1024   14.2944 H   0  0  0  0  0  0  0  0  0  0  0  0
   -6.7781    0.4107    9.0109 H   0  0  0  0  0  0  0  0  0  0  0  0
  -11.8465    1.5128    7.7550 H   0  0  0  0  0  0  0  0  0  0  0  0
  -10.4907    1.2007    6.6153 H   0  0  0  0  0  0  0  0  0  0  0  0
   -8.8707   -2.3389    8.2123 H   0  0  0  0  0  0  0  0  0  0  0  0
  -10.4472   -2.3050    9.0862 H   0  0  0  0  0  0  0  0  0  0  0  0
   -7.9565   -6.7462    6.3949 H   0  0  0  0  0  0  0  0  0  0  0  0
  -12.2232   -6.2075    8.8970 H   0  0  0  0  0  0  0  0  0  0  0  0
   -4.1522   -2.3836   12.3444 H   0  0  0  0  0  0  0  0  0  0  0  0
  -11.0742   -8.3777    8.8841 H   0  0  0  0  0  0  0  0  0  0  0  0
   -8.9400   -8.6585    7.6403 H   0  0  0  0  0  0  0  0  0  0  0  0
   -9.1026   -4.5662    6.3715 H   0  0  0  0  0  0  0  0  0  0  0  0
  -11.1966   -3.1144    5.6213 H   0  0  0  0  0  0  0  0  0  0  0  0
   -9.8144   -1.2605    6.2486 H   0  0  0  0  0  0  0  0  0  0  0  0
  -12.3606   -0.8572    7.9492 H   0  0  0  0  0  0  0  0  0  0  0  0
  -12.1932   -0.4754    6.1938 H   0  0  0  0  0  0  0  0  0  0  0  0
   -9.8292    1.6588    9.1433 H   0  0  0  0  0  0  0  0  0  0  0  0
  -10.3782   -0.3218   13.7219 H   0  0  0  0  0  0  0  0  0  0  0  0
  -10.1397   -1.4343   15.1113 H   0  0  0  0  0  0  0  0  0  0  0  0
   -3.4737    1.5495   13.8970 H   0  0  0  0  0  0  0  0  0  0  0  0
   -0.0624   -0.1455   13.2801 H   0  0  0  0  0  0  0  0  0  0  0  0
   -0.7996    1.2108   14.2174 H   0  0  0  0  0  0  0  0  0  0  0  0
   -0.7221    1.2940   12.4077 H   0  0  0  0  0  0  0  0  0  0  0  0
  3  4  4  0
  2  4  4  0
  2  5  4  0
  5  6  1  0
  4  7  1  0
  7  9  1  0
 10 12  4  0
 14 15  2  0
 10 15  1  0
 12 16  4  0
 16 17  4  0
 11 17  4  0
 10 18  4  0
 11 18  4  0
 15 19  1  0
 20 19  1  0
  9 20  1  0
  8 21  1  0
 20 21  1  0
  8 22  1  0
  7 22  2  0
  3 23  4  0
  6 24  1  0
  6 25  2  0
 23 26  4  0
  5 26  4  0
  1 26  1  0
  1 27  1  0
 13 27  4  0
 27 28  4  0
 13 29  4  0
 28 30  4  0
 29 30  4  0
 30 31  1  0
  1 32  1  0
  3 33  1  0
  8 34  1  0
  8 35  1  0
  9 36  1  0
  9 37  1  0
 11 38  1  0
 12 39  1  0
 13 40  1  0
 16 41  1  0
 17 42  1  0
 18 43  1  0
 19 44  1  0
 20 45  1  1
 21 46  1  0
 21 47  1  0
 22 48  1  0
 24 49  1  0
 24 50  1  0
 28 51  1  0
 31 52  1  0
 31 53  1  0
 31 54  1  0
M  CHG  1  30   1
M  END
