7POM_7VZ_C_302
     RDKit          3D

 22 23  0  0  0  0  0  0  0  0999 V2000
  -34.1355    8.5556  -58.2215 Cl  0  0  0  0  0  0  0  0  0  0  0  0
  -33.2030   10.0401  -57.8460 C   0  0  0  0  0  0  0  0  0  0  0  0
  -33.6817   11.3451  -58.3371 C   0  0  0  0  0  0  0  0  0  0  0  0
  -34.9309   11.4032  -59.1228 C   0  0  0  0  0  0  0  0  0  0  0  0
  -35.4527   12.6568  -59.5441 O   0  0  0  0  0  0  0  0  0  0  0  0
  -36.7920   13.0058  -59.2274 C   0  0  0  0  0  0  0  0  0  0  0  0
  -35.5457   10.4013  -59.3798 O   0  0  0  0  0  0  0  0  0  0  0  0
  -32.0383    9.9676  -57.1000 C   0  0  0  0  0  0  0  0  0  0  0  0
  -31.3197   11.1104  -56.8023 C   0  0  0  0  0  0  0  0  0  0  0  0
  -31.8242   12.4499  -57.3024 C   0  0  0  0  0  0  0  0  0  0  0  0
  -31.0276   13.8349  -56.9972 S   0  0  1  0  0  0  0  0  0  0  0  0
  -29.7100   13.8259  -57.5610 O   0  0  0  0  0  0  0  0  0  0  0  0
  -31.7830   15.0291  -57.8033 N   0  0  0  0  0  0  0  0  0  0  0  0
  -31.0665   14.1045  -55.5885 O   0  0  0  0  0  0  0  0  0  0  0  0
  -32.9832   12.4875  -58.0509 C   0  0  0  0  0  0  0  0  0  0  0  0
  -29.8771   11.0433  -55.8954 S   0  0  0  0  0  0  0  0  0  0  0  0
  -29.7465    9.6462  -54.7922 C   0  0  1  0  0  0  0  0  0  0  0  0
  -30.8915    8.6102  -54.7696 C   0  0  0  0  0  0  0  0  0  0  0  0
  -30.7563    7.6524  -53.5688 C   0  0  0  0  0  0  0  0  0  0  0  0
  -29.3104    7.1278  -53.4636 C   0  0  0  0  0  0  0  0  0  0  0  0
  -28.1346    8.0835  -53.8312 C   0  0  0  0  0  0  0  0  0  0  0  0
  -28.4173    8.9576  -55.0414 C   0  0  0  0  0  0  0  0  0  0  0  0
  1  2  1  0
  2  3  2  0
  3  4  1  0
  4  5  1  0
  5  6  1  0
  4  7  2  0
  2  8  1  0
  8  9  2  0
  9 10  1  0
 10 11  1  0
 11 12  2  0
 11 13  1  6
 11 14  2  0
 10 15  2  0
  3 15  1  0
  9 16  1  0
 17 16  1  6
 17 18  1  0
 18 19  1  0
 19 20  1  0
 20 21  1  0
 21 22  1  0
 17 22  1  0
M  END
