6ZK5_IMH_B_401
     RDKit          3D

 19 21  0  0  0  0  0  0  0  0999 V2000
    4.4435    3.8744  -12.2515 O   0  0  0  0  0  0  0  0  0  0  0  0
    4.0734    2.6562  -12.8177 C   0  0  0  0  0  0  0  0  0  0  0  0
    4.0974    1.5250  -11.7990 C   0  0  1  0  0  0  0  0  0  0  0  0
    3.1979    1.8913  -10.7545 N   0  0  0  0  0  0  0  0  0  0  0  0
    3.5140    0.2996  -12.4257 C   0  0  1  0  0  0  0  0  0  0  0  0
    4.5926   -0.5022  -12.8269 O   0  0  0  0  0  0  0  0  0  0  0  0
    2.7112   -0.3489  -11.3274 C   0  0  1  0  0  0  0  0  0  0  0  0
    3.4328   -1.4552  -10.8810 O   0  0  0  0  0  0  0  0  0  0  0  0
    2.6253    0.6631  -10.2277 C   0  0  2  0  0  0  0  0  0  0  0  0
    1.2174    1.0023   -9.8596 C   0  0  0  0  0  0  0  0  0  0  0  0
    0.5491    2.1951  -10.1202 C   0  0  0  0  0  0  0  0  0  0  0  0
   -0.7025    2.1327   -9.6393 N   0  0  0  0  0  0  0  0  0  0  0  0
   -0.8396    0.9319   -9.0829 C   0  0  0  0  0  0  0  0  0  0  0  0
   -1.9154    0.3245   -8.4359 C   0  0  0  0  0  0  0  0  0  0  0  0
   -3.1307    0.9734   -8.2685 O   0  0  0  0  0  0  0  0  0  0  0  0
   -1.8099   -0.9345   -7.9431 N   0  0  0  0  0  0  0  0  0  0  0  0
   -0.6494   -1.6139   -8.0778 C   0  0  0  0  0  0  0  0  0  0  0  0
    0.4098   -1.0572   -8.6973 N   0  0  0  0  0  0  0  0  0  0  0  0
    0.3306    0.1932   -9.1962 C   0  0  0  0  0  0  0  0  0  0  0  0
  2  1  1  6
  3  2  1  0
  3  4  1  1
  3  5  1  0
  5  6  1  1
  5  7  1  0
  7  8  1  1
  4  9  1  0
  7  9  1  0
  9 10  1  6
 10 11  2  0
 11 12  1  0
 12 13  1  0
 13 14  2  0
 14 15  1  0
 14 16  1  0
 16 17  2  0
 17 18  1  0
 10 19  1  0
 13 19  1  0
 18 19  2  0
M  END
$$$$
