7RPZ_6IC_A_202
     RDKit          3D

 75 82  0  0  0  0  0  0  0  0999 V2000
   -5.2156   -1.0406  -15.3443 C   0  0  0  0  0  0  0  0  0  0  0  0
   -5.8939   -2.1759  -15.7701 C   0  0  0  0  0  0  0  0  0  0  0  0
   -4.1936   -0.5016  -16.1195 C   0  0  0  0  0  0  0  0  0  0  0  0
   -4.5705   -2.2150  -17.8397 C   0  0  0  0  0  0  0  0  0  0  0  0
   -3.8457   -1.0797  -17.3527 C   0  0  0  0  0  0  0  0  0  0  0  0
   -5.5794   -2.7738  -16.9982 C   0  0  0  0  0  0  0  0  0  0  0  0
   -5.9852   -4.5561  -18.5971 C   0  0  0  0  0  0  0  0  0  0  0  0
   -3.8730    1.9353  -25.0139 C   0  0  1  0  0  0  0  0  0  0  0  0
   -2.0081    0.2355  -25.2260 C   0  0  2  0  0  0  0  0  0  0  0  0
   -6.2678   -3.9335  -17.3826 C   0  0  0  0  0  0  0  0  0  0  0  0
   -1.8503   -1.1704  -22.1348 C   0  0  0  0  0  0  0  0  0  0  0  0
   -1.3855   -2.2680  -21.3855 C   0  0  0  0  0  0  0  0  0  0  0  0
    0.6744   -2.2138  -22.5511 C   0  0  0  0  0  0  0  0  0  0  0  0
   -0.9972   -0.6294  -23.1140 C   0  0  0  0  0  0  0  0  0  0  0  0
   -3.1313   -0.6616  -21.8670 C   0  0  0  0  0  0  0  0  0  0  0  0
   -3.4572   -2.2748  -20.1458 C   0  0  0  0  0  0  0  0  0  0  0  0
   -2.1933   -2.8296  -20.3937 C   0  0  0  0  0  0  0  0  0  0  0  0
   -4.3367   -2.8388  -19.1064 C   0  0  0  0  0  0  0  0  0  0  0  0
    3.0192   -2.5760  -21.7846 C   0  0  2  0  0  0  0  0  0  0  0  0
   -1.0785    1.8482  -23.4232 C   0  0  2  0  0  0  0  0  0  0  0  0
   -1.8208    2.9301  -24.2413 C   0  0  2  0  0  0  0  0  0  0  0  0
   -2.6366    1.5187  -25.8158 C   0  0  2  0  0  0  0  0  0  0  0  0
   -3.3243    2.8867  -23.9562 C   0  0  2  0  0  0  0  0  0  0  0  0
   -5.0323   -4.0085  -19.4503 C   0  0  0  0  0  0  0  0  0  0  0  0
    3.9231   -3.8366  -21.7442 C   0  0  1  0  0  0  0  0  0  0  0  0
    3.2045   -5.0264  -22.4195 C   0  0  2  0  0  0  0  0  0  0  0  0
    3.4304   -6.1955  -21.4881 C   0  0  2  0  0  0  0  0  0  0  0  0
    3.5962   -5.5469  -20.1282 C   0  0  1  0  0  0  0  0  0  0  0  0
    5.6397   -4.1966  -20.1368 C   0  0  1  0  0  0  0  0  0  0  0  0
    6.2389   -3.3529  -21.2412 C   0  0  2  0  0  0  0  0  0  0  0  0
    5.2926   -3.5527  -22.4000 C   0  0  1  0  0  0  0  0  0  0  0  0
   -2.6921   -0.5202  -18.0223 C   0  0  0  0  0  0  0  0  0  0  0  0
   -1.7216   -0.0438  -18.5589 C   0  0  0  0  0  0  0  0  0  0  0  0
   -1.7435   -3.8803  -19.6596 F   0  0  0  0  0  0  0  0  0  0  0  0
    4.5919   -6.8649  -21.8384 F   0  0  0  0  0  0  0  0  0  0  0  0
   -3.5221    0.5835  -15.6520 F   0  0  0  0  0  0  0  0  0  0  0  0
   -0.1440   -2.7640  -21.6147 N   0  0  0  0  0  0  0  0  0  0  0  0
    0.2398   -1.1632  -23.2933 N   0  0  0  0  0  0  0  0  0  0  0  0
   -3.8933   -1.2210  -20.8900 N   0  0  0  0  0  0  0  0  0  0  0  0
   -1.3912    0.4921  -23.9112 N   0  0  0  0  0  0  0  0  0  0  0  0
   -1.7022    2.6295  -25.6644 N   0  0  0  0  0  0  0  0  0  0  0  0
    4.1806   -4.2149  -20.3422 N   0  0  0  0  0  0  0  0  0  0  0  0
    1.9703   -2.7020  -22.7472 O   0  0  0  0  0  0  0  0  0  0  0  0
   -6.6571   -5.7174  -18.9730 O   0  0  0  0  0  0  0  0  0  0  0  0
   -5.4692   -0.5883  -14.3938 H   0  0  0  0  0  0  0  0  0  0  0  0
   -6.6684   -2.5905  -15.1350 H   0  0  0  0  0  0  0  0  0  0  0  0
   -4.5871    2.4747  -25.6748 H   0  0  0  0  0  0  0  0  0  0  0  0
   -4.3970    1.0704  -24.5506 H   0  0  0  0  0  0  0  0  0  0  0  0
   -1.2290   -0.1403  -25.9230 H   0  0  0  0  0  0  0  0  0  0  0  0
   -2.7829   -0.5569  -25.1350 H   0  0  0  0  0  0  0  0  0  0  0  0
   -7.0246   -4.3613  -16.7346 H   0  0  0  0  0  0  0  0  0  0  0  0
   -3.5269    0.1798  -22.4196 H   0  0  0  0  0  0  0  0  0  0  0  0
    3.6214   -1.6651  -21.9972 H   0  0  0  0  0  0  0  0  0  0  0  0
    2.5543   -2.4334  -20.7853 H   0  0  0  0  0  0  0  0  0  0  0  0
   -1.3489    1.9369  -22.3482 H   0  0  0  0  0  0  0  0  0  0  0  0
    0.0162    2.0187  -23.5033 H   0  0  0  0  0  0  0  0  0  0  0  0
   -1.4044    3.9361  -24.0188 H   0  0  0  0  0  0  0  0  0  0  0  0
   -2.8919    1.3659  -26.8869 H   0  0  0  0  0  0  0  0  0  0  0  0
   -3.5583    2.5330  -22.9286 H   0  0  0  0  0  0  0  0  0  0  0  0
   -3.7638    3.8990  -24.0931 H   0  0  0  0  0  0  0  0  0  0  0  0
   -4.8511   -4.4872  -20.4059 H   0  0  0  0  0  0  0  0  0  0  0  0
    3.5727   -5.2434  -23.4463 H   0  0  0  0  0  0  0  0  0  0  0  0
    2.1080   -4.8472  -22.4924 H   0  0  0  0  0  0  0  0  0  0  0  0
    2.5742   -6.9044  -21.5012 H   0  0  0  0  0  0  0  0  0  0  0  0
    2.5932   -5.4143  -19.6662 H   0  0  0  0  0  0  0  0  0  0  0  0
    4.1938   -6.1824  -19.4365 H   0  0  0  0  0  0  0  0  0  0  0  0
    6.0885   -5.2158  -20.1930 H   0  0  0  0  0  0  0  0  0  0  0  0
    5.8728   -3.7568  -19.1435 H   0  0  0  0  0  0  0  0  0  0  0  0
    7.2719   -3.6787  -21.4920 H   0  0  0  0  0  0  0  0  0  0  0  0
    6.2515   -2.2827  -20.9389 H   0  0  0  0  0  0  0  0  0  0  0  0
    5.6515   -4.4245  -22.9916 H   0  0  0  0  0  0  0  0  0  0  0  0
    5.2817   -2.6625  -23.0670 H   0  0  0  0  0  0  0  0  0  0  0  0
   -0.8711    0.3707  -19.0334 H   0  0  0  0  0  0  0  0  0  0  0  0
   -0.7243    2.3451  -25.9140 H   0  0  0  0  0  0  0  0  0  0  0  0
   -7.5494   -5.9700  -18.5648 H   0  0  0  0  0  0  0  0  0  0  0  0
  1  2  2  0
  1  3  1  0
  4  5  1  0
  3  5  2  0
  4  6  2  0
  2  6  1  0
  7 10  2  0
  6 10  1  0
 11 12  1  0
 11 14  1  0
 11 15  2  0
 16 17  1  0
 12 17  2  0
 16 18  1  0
  4 18  1  0
 21 20  1  0
 22  9  1  0
  8 22  1  0
 21 23  1  0
  8 23  1  0
  7 24  1  0
 18 24  2  0
 25 19  1  0
 25 26  1  0
 26 27  1  0
 27 28  1  0
 29 30  1  0
 30 31  1  0
 25 31  1  0
  5 32  1  0
 32 33  3  0
 17 34  1  0
 27 35  1  0
  3 36  1  0
 12 37  1  0
 13 37  2  0
 14 38  2  0
 13 38  1  0
 15 39  1  0
 16 39  2  0
  9 40  1  0
 14 40  1  0
 20 40  1  0
 22 41  1  0
 21 41  1  0
 29 42  1  0
 28 42  1  0
 25 42  1  1
 13 43  1  0
 19 43  1  0
  7 44  1  0
  1 45  1  0
  2 46  1  0
  8 47  1  6
  8 48  1  0
  9 49  1  6
  9 50  1  0
 10 51  1  0
 15 52  1  0
 19 53  1  6
 19 54  1  0
 20 55  1  1
 20 56  1  0
 21 57  1  6
 22 58  1  6
 23 59  1  1
 23 60  1  0
 24 61  1  0
 26 62  1  6
 26 63  1  0
 27 64  1  1
 28 65  1  1
 28 66  1  0
 29 67  1  1
 29 68  1  0
 30 69  1  6
 30 70  1  0
 31 71  1  6
 31 72  1  0
 33 73  1  0
 41 74  1  0
 44 75  1  0
M  END
