6WTN_RXT_A_1204
     RDKit          3D

 23 26  0  0  0  0  0  0  0  0999 V2000
   21.6339   10.8271    5.1214 C   0  0  0  0  0  0  0  0  0  0  0  0
   20.4411   10.5905    4.1947 C   0  0  0  0  0  0  0  0  0  0  0  0
   19.6283   11.8661    4.2931 C   0  0  0  0  0  0  0  0  0  0  0  0
   19.8534   12.2220    5.7702 C   0  0  0  0  0  0  0  0  0  0  0  0
   21.3501   12.1412    5.8095 C   0  0  1  0  0  0  0  0  0  0  0  0
   21.9768   12.3171    7.1356 C   0  0  1  0  0  0  0  0  0  0  0  0
   23.4867   12.4800    6.9201 C   0  0  0  0  0  0  0  0  0  0  0  0
   24.1741   12.4412    8.1948 C   0  0  0  0  0  0  0  0  0  0  0  0
   24.7420   12.4166    9.2182 N   0  0  0  0  0  0  0  0  0  0  0  0
   21.5312   13.4645    7.8917 N   0  0  0  0  0  0  0  0  0  0  0  0
   21.0791   13.3640    9.1645 C   0  0  0  0  0  0  0  0  0  0  0  0
   21.4639   14.7404    7.5649 N   0  0  0  0  0  0  0  0  0  0  0  0
   20.9896   15.4952    8.5558 C   0  0  0  0  0  0  0  0  0  0  0  0
   20.7347   14.6238    9.5991 C   0  0  0  0  0  0  0  0  0  0  0  0
   20.1975   15.0156   10.9068 C   0  0  0  0  0  0  0  0  0  0  0  0
   20.0357   16.3254   11.2428 N   0  0  0  0  0  0  0  0  0  0  0  0
   19.5348   16.6691   12.4631 C   0  0  0  0  0  0  0  0  0  0  0  0
   19.1890   15.7310   13.3624 N   0  0  0  0  0  0  0  0  0  0  0  0
   19.3376   14.4277   13.0587 C   0  0  0  0  0  0  0  0  0  0  0  0
   19.8418   14.0572   11.8316 C   0  0  0  0  0  0  0  0  0  0  0  0
   19.8830   12.6946   11.7960 C   0  0  0  0  0  0  0  0  0  0  0  0
   19.3990   12.2160   13.0141 C   0  0  0  0  0  0  0  0  0  0  0  0
   19.0817   13.3037   13.7451 N   0  0  0  0  0  0  0  0  0  0  0  0
  2  1  1  1
  3  2  1  1
  4  3  1  1
  4  5  1  0
  1  5  1  1
  5  6  1  1
  6  7  1  0
  7  8  1  6
  8  9  3  0
  6 10  1  6
 10 11  1  0
 10 12  1  0
 12 13  2  0
 13 14  1  0
 11 14  2  0
 14 15  1  0
 15 16  2  0
 16 17  1  0
 17 18  2  0
 18 19  1  0
 15 20  1  0
 19 20  2  0
 20 21  1  0
 21 22  2  0
 19 23  1  0
 22 23  1  0
M  END
$$$$
