1HWI_115_B_1
     RDKit          3D

 30 32  0  0  0  0  0  0  0  0999 V2000
   39.0357   -1.3433   10.2038 C   0  0  0  0  0  0  0  0  0  0  0  0
   38.1796   -2.2055   10.8280 C   0  0  0  0  0  0  0  0  0  0  0  0
   38.5017   -2.6005   12.1100 C   0  0  0  0  0  0  0  0  0  0  0  0
   39.6402   -2.1457   12.7374 C   0  0  0  0  0  0  0  0  0  0  0  0
   40.4952   -1.2760   12.0947 C   0  0  0  0  0  0  0  0  0  0  0  0
   40.1802   -0.8741   10.8093 C   0  0  0  0  0  0  0  0  0  0  0  0
   38.4962   -1.1085    8.9651 C   0  0  0  0  0  0  0  0  0  0  0  0
   37.2900   -1.8349    8.8205 C   0  0  0  0  0  0  0  0  0  0  0  0
   37.1338   -2.4929    9.9818 N   0  0  0  0  0  0  0  0  0  0  0  0
   40.9681    0.2330    6.4814 C   0  0  0  0  0  0  0  0  0  0  0  0
   40.3317   -0.5727    7.4086 C   0  0  0  0  0  0  0  0  0  0  0  0
   39.1288   -0.2260    7.9912 C   0  0  0  0  0  0  0  0  0  0  0  0
   38.5512    0.9603    7.6331 C   0  0  0  0  0  0  0  0  0  0  0  0
   39.1425    1.8210    6.7019 C   0  0  0  0  0  0  0  0  0  0  0  0
   40.3466    1.4141    6.1559 C   0  0  0  0  0  0  0  0  0  0  0  0
   40.9460    2.2238    5.2511 F   0  0  0  0  0  0  0  0  0  0  0  0
   34.0351   -1.2290    1.7422 O   0  0  0  0  0  0  0  0  0  0  0  0
   31.8322   -0.8611    2.0905 O   0  0  0  0  0  0  0  0  0  0  0  0
   34.4622   -4.0307    3.6313 O   0  0  0  0  0  0  0  0  0  0  0  0
   33.0406   -1.3393    2.5342 C   0  0  0  0  0  0  0  0  0  0  0  0
   33.3058   -1.9679    3.8359 C   0  0  0  0  0  0  0  0  0  0  0  0
   34.6254   -2.6659    3.9266 C   0  0  1  0  0  0  0  0  0  0  0  0
   35.2818   -2.5339    5.3015 C   0  0  0  0  0  0  0  0  0  0  0  0
   35.0761   -1.1139    5.7777 C   0  0  1  0  0  0  0  0  0  0  0  0
   36.0050   -0.7892    6.9457 C   0  0  0  0  0  0  0  0  0  0  0  0
   36.5193   -1.7733    7.6246 C   0  0  0  0  0  0  0  0  0  0  0  0
   36.1062   -3.4017   10.4262 C   0  0  1  0  0  0  0  0  0  0  0  0
   34.7164   -2.7744   10.2001 C   0  0  0  0  0  0  0  0  0  0  0  0
   36.1422   -4.7053    9.6508 C   0  0  0  0  0  0  0  0  0  0  0  0
   35.4740   -0.2887    4.7343 O   0  0  0  0  0  0  0  0  0  0  0  0
  1  2  1  0
  2  3  2  0
  3  4  1  0
  4  5  2  0
  1  6  2  0
  5  6  1  0
  1  7  1  0
  7  8  2  0
  8  9  1  0
  2  9  1  0
 10 11  2  0
  7 12  1  0
 11 12  1  0
 12 13  2  0
 13 14  1  0
 14 15  2  0
 10 15  1  0
 15 16  1  0
 17 20  2  0
 18 20  1  0
 20 21  1  0
 21 22  1  0
 22 19  1  1
 22 23  1  0
 23 24  1  0
 24 25  1  0
 25 26  2  0
  8 26  1  0
  9 27  1  0
 27 28  1  6
 27 29  1  0
 24 30  1  6
M  END
$$$$
