7BTT_F8R_A_1501
     RDKit          3D

 73 77  0  0  0  0  0  0  0  0999 V2000
    5.0196   16.8326    7.5235 N   0  0  0  0  0  0  0  0  0  0  0  0
    4.0562   17.7905    7.3502 C   0  0  0  0  0  0  0  0  0  0  0  0
    5.7622   19.6195    7.2847 C   0  0  0  0  0  0  0  0  0  0  0  0
    7.9090   19.4578    6.1765 C   0  0  0  0  0  0  0  0  0  0  0  0
    6.2942   20.5984    8.1565 C   0  0  0  0  0  0  0  0  0  0  0  0
    5.8716   22.1235   10.0932 C   0  0  1  0  0  0  0  0  0  0  0  0
   10.1900   19.5772    5.6551 C   0  0  2  0  0  0  0  0  0  0  0  0
    8.7601   18.1132    4.1410 C   0  0  0  0  0  0  0  0  0  0  0  0
    7.2604   15.9717   13.0662 C   0  0  1  0  0  0  0  0  0  0  0  0
    7.7904   16.5377   11.7450 C   0  0  2  0  0  0  0  0  0  0  0  0
    7.7063   15.6765    8.8820 C   0  0  0  0  0  0  0  0  0  0  0  0
    9.0509   16.0848    8.8012 C   0  0  0  0  0  0  0  0  0  0  0  0
    9.8280   15.7646    7.6870 C   0  0  0  0  0  0  0  0  0  0  0  0
    9.2804   15.0289    6.6391 C   0  0  0  0  0  0  0  0  0  0  0  0
    7.9484   14.6214    6.6956 C   0  0  0  0  0  0  0  0  0  0  0  0
    7.1494   14.9469    7.8002 C   0  0  0  0  0  0  0  0  0  0  0  0
    4.7317   15.5010    7.5556 C   0  0  0  0  0  0  0  0  0  0  0  0
    6.5806   19.0370    6.2943 C   0  0  0  0  0  0  0  0  0  0  0  0
    8.4315   20.3721    7.0478 C   0  0  0  0  0  0  0  0  0  0  0  0
    7.6529   20.9697    8.0376 C   0  0  0  0  0  0  0  0  0  0  0  0
    9.8890   20.5535    6.8140 C   0  0  1  0  0  0  0  0  0  0  0  0
    8.0435   18.5604    2.8971 C   0  0  1  0  0  0  0  0  0  0  0  0
    9.4499   18.8772    0.9549 C   0  0  2  0  0  0  0  0  0  0  0  0
    9.4380   16.7472    2.0773 C   0  0  2  0  0  0  0  0  0  0  0  0
    2.4546   16.0972    7.1817 C   0  0  0  0  0  0  0  0  0  0  0  0
    3.3998   15.1343    7.3728 C   0  0  0  0  0  0  0  0  0  0  0  0
    1.5155   14.1206    7.1656 C   0  0  0  0  0  0  0  0  0  0  0  0
    1.2338   15.4809    7.0468 C   0  0  0  0  0  0  0  0  0  0  0  0
    7.8254   18.0713   11.8084 C   0  0  1  0  0  0  0  0  0  0  0  0
    5.7733   14.5426    7.7865 N   0  0  0  0  0  0  0  0  0  0  0  0
    4.4049   19.1770    7.4469 N   0  0  0  0  0  0  0  0  0  0  0  0
    8.9097   18.9690    5.2888 N   0  0  0  0  0  0  0  0  0  0  0  0
    8.6209   17.9148    1.6991 N   0  0  0  0  0  0  0  0  0  0  0  0
    2.7509   17.4208    7.1792 N   0  0  0  0  0  0  0  0  0  0  0  0
    2.8396   13.9125    7.3664 N   0  0  0  0  0  0  0  0  0  0  0  0
    5.4590   21.1484    9.1415 O   0  0  0  0  0  0  0  0  0  0  0  0
    9.2556   16.9547    4.1720 O   0  0  0  0  0  0  0  0  0  0  0  0
    5.7241   17.0274   10.1139 O   0  0  0  0  0  0  0  0  0  0  0  0
    6.0940   14.6971   10.7582 O   0  0  0  0  0  0  0  0  0  0  0  0
    6.7716   15.9811   10.3659 S   0  0  2  0  0  6  0  0  0  0  0  0
    6.8281   21.8150   10.5663 H   0  0  0  0  0  0  0  0  0  0  0  0
    5.9926   23.1109    9.5996 H   0  0  0  0  0  0  0  0  0  0  0  0
    5.0947   22.2122   10.8802 H   0  0  0  0  0  0  0  0  0  0  0  0
   10.9019   18.7896    5.9833 H   0  0  0  0  0  0  0  0  0  0  0  0
   10.6121   20.1263    4.7855 H   0  0  0  0  0  0  0  0  0  0  0  0
    6.2612   16.3998   13.2942 H   0  0  0  0  0  0  0  0  0  0  0  0
    7.1746   14.8651   13.0122 H   0  0  0  0  0  0  0  0  0  0  0  0
    7.9424   16.2398   13.8994 H   0  0  0  0  0  0  0  0  0  0  0  0
    8.8233   16.1560   11.6022 H   0  0  0  0  0  0  0  0  0  0  0  0
    9.5216   16.6331    9.6019 H   0  0  0  0  0  0  0  0  0  0  0  0
   10.8619   16.0815    7.6402 H   0  0  0  0  0  0  0  0  0  0  0  0
    9.8876   14.7793    5.7788 H   0  0  0  0  0  0  0  0  0  0  0  0
    7.5291   14.0611    5.8699 H   0  0  0  0  0  0  0  0  0  0  0  0
    6.1804   18.2608    5.6631 H   0  0  0  0  0  0  0  0  0  0  0  0
    8.1070   21.6872    8.7070 H   0  0  0  0  0  0  0  0  0  0  0  0
   10.4626   20.2791    7.7248 H   0  0  0  0  0  0  0  0  0  0  0  0
   10.1038   21.6025    6.5195 H   0  0  0  0  0  0  0  0  0  0  0  0
    6.9792   18.2610    3.0171 H   0  0  0  0  0  0  0  0  0  0  0  0
    8.0865   19.6679    2.7990 H   0  0  0  0  0  0  0  0  0  0  0  0
    8.9110   19.8443    0.8519 H   0  0  0  0  0  0  0  0  0  0  0  0
    9.6461   18.5036   -0.0732 H   0  0  0  0  0  0  0  0  0  0  0  0
   10.4214   19.0573    1.4692 H   0  0  0  0  0  0  0  0  0  0  0  0
   10.0484   16.4128    1.2111 H   0  0  0  0  0  0  0  0  0  0  0  0
    8.7864   15.8956    2.3654 H   0  0  0  0  0  0  0  0  0  0  0  0
   10.1152   16.9845    2.9269 H   0  0  0  0  0  0  0  0  0  0  0  0
    0.7829   13.3263    7.1153 H   0  0  0  0  0  0  0  0  0  0  0  0
    0.2686   15.9460    6.8952 H   0  0  0  0  0  0  0  0  0  0  0  0
    8.3268   18.4959   10.9160 H   0  0  0  0  0  0  0  0  0  0  0  0
    6.7958   18.4879   11.8567 H   0  0  0  0  0  0  0  0  0  0  0  0
    8.3844   18.4001   12.7101 H   0  0  0  0  0  0  0  0  0  0  0  0
    5.5680   13.5261    7.6613 H   0  0  0  0  0  0  0  0  0  0  0  0
    3.7052   19.8359    7.8566 H   0  0  0  0  0  0  0  0  0  0  0  0
    3.3103   12.9899    7.4961 H   0  0  0  0  0  0  0  0  0  0  0  0
  1  2  2  0
  3  5  2  0
  9 10  1  0
 11 12  2  0
 12 13  1  0
 13 14  2  0
 14 15  1  0
 15 16  2  0
 11 16  1  0
  1 17  1  0
  4 18  2  0
  3 18  1  0
  4 19  1  0
 19 20  2  0
  5 20  1  0
  7 21  1  0
 19 21  1  0
  8 22  1  0
 17 26  2  0
 25 26  1  0
 25 28  1  0
 27 28  2  0
 10 29  1  0
 16 30  1  0
 17 30  1  0
  3 31  1  0
  2 31  1  0
  7 32  1  0
  4 32  1  0
  8 32  1  0
 24 33  1  0
 22 33  1  0
 23 33  1  0
  2 34  1  0
 25 34  2  0
 26 35  1  0
 27 35  1  0
  6 36  1  0
  5 36  1  0
  8 37  2  0
 40 11  1  6
 39 40  2  0
 38 40  2  0
 10 40  1  0
  6 41  1  1
  6 42  1  0
  6 43  1  0
  7 44  1  1
  7 45  1  0
  9 46  1  1
  9 47  1  0
  9 48  1  0
 10 49  1  6
 12 50  1  0
 13 51  1  0
 14 52  1  0
 15 53  1  0
 18 54  1  0
 20 55  1  0
 21 56  1  1
 21 57  1  0
 22 58  1  1
 22 59  1  0
 23 60  1  6
 23 61  1  0
 23 62  1  0
 24 63  1  6
 24 64  1  0
 24 65  1  0
 27 66  1  0
 28 67  1  0
 29 68  1  6
 29 69  1  0
 29 70  1  0
 30 71  1  0
 31 72  1  0
 35 73  1  0
M  END
