8DP2_UMA_A_501
     RDKit          3D

 85 87  0  0  0  0  0  0  0  0999 V2000
   48.8638   -6.2989   -3.5003 N   0  0  0  0  0  0  0  0  0  0  0  0
   50.0408   -5.6185   -3.6940 C   0  0  0  0  0  0  0  0  0  0  0  0
   51.1041   -6.2363   -4.2814 N   0  0  0  0  0  0  0  0  0  0  0  0
   51.0245   -7.5262   -4.6968 C   0  0  0  0  0  0  0  0  0  0  0  0
   49.8352   -8.2315   -4.5377 C   0  0  0  0  0  0  0  0  0  0  0  0
   48.7530   -7.5897   -3.9437 C   0  0  0  0  0  0  0  0  0  0  0  0
   50.1534   -4.4161   -3.3324 O   0  0  0  0  0  0  0  0  0  0  0  0
   52.0243   -8.0822   -5.2264 O   0  0  0  0  0  0  0  0  0  0  0  0
   47.6959   -5.6393   -2.8823 C   0  0  1  0  0  0  0  0  0  0  0  0
   46.6280   -5.3420   -3.9245 C   0  0  2  0  0  0  0  0  0  0  0  0
   46.7935   -4.0454   -4.4387 O   0  0  0  0  0  0  0  0  0  0  0  0
   45.3248   -5.5109   -3.1601 C   0  0  1  0  0  0  0  0  0  0  0  0
   45.7628   -6.1252   -1.8229 C   0  0  2  0  0  0  0  0  0  0  0  0
   47.1273   -6.4675   -1.8965 O   0  0  0  0  0  0  0  0  0  0  0  0
   44.6835   -4.2805   -2.9329 O   0  0  0  0  0  0  0  0  0  0  0  0
   44.9419   -7.3632   -1.4475 C   0  0  2  0  0  0  0  0  0  0  0  0
   45.7632   -8.5088   -1.4653 O   0  0  0  0  0  0  0  0  0  0  0  0
   46.8503   -8.4118   -0.1514 P   0  0  1  0  0  5  0  0  0  0  0  0
   47.8586   -7.3187   -0.4246 O   0  0  0  0  0  0  0  0  0  0  0  0
   46.0254   -8.0661    1.2888 O   0  0  0  0  0  0  0  0  0  0  0  0
   47.6941   -9.8758    0.0458 O   0  0  0  0  0  0  0  0  0  0  0  0
   47.4565  -10.8156   -1.3550 P   0  0  2  0  0  5  0  0  0  0  0  0
   46.0229  -11.2924   -1.4719 O   0  0  0  0  0  0  0  0  0  0  0  0
   48.4737  -12.1661   -1.2644 O   0  0  0  0  0  0  0  0  0  0  0  0
   47.8885   -9.8871   -2.7223 O   0  0  0  0  0  0  0  0  0  0  0  0
   48.0843  -10.7270   -3.8464 C   0  0  2  0  0  0  0  0  0  0  0  0
   49.6126  -10.8895   -4.0961 C   0  0  2  0  0  0  0  0  0  0  0  0
   50.3681  -10.6660   -2.8585 N   0  0  0  0  0  0  0  0  0  0  0  0
   50.1909  -11.4896   -1.6982 C   0  0  0  0  0  0  0  0  0  0  0  0
   49.1441  -12.1786   -1.5575 O   0  0  0  0  0  0  0  0  0  0  0  0
   51.2677  -11.5652   -0.6665 C   0  0  2  0  0  0  0  0  0  0  0  0
   50.0899   -9.9425   -5.2043 C   0  0  1  0  0  0  0  0  0  0  0  0
   51.4671  -10.1842   -5.4682 O   0  0  0  0  0  0  0  0  0  0  0  0
   49.3017  -10.2336   -6.4957 C   0  0  2  0  0  0  0  0  0  0  0  0
   49.3869   -9.1075   -7.3314 O   0  0  0  0  0  0  0  0  0  0  0  0
   47.8098  -10.5850   -6.2108 C   0  0  2  0  0  0  0  0  0  0  0  0
   47.3868  -10.1352   -4.9344 O   0  0  0  0  0  0  0  0  0  0  0  0
   47.4716  -12.0745   -6.4417 C   0  0  2  0  0  0  0  0  0  0  0  0
   46.3334  -12.2048   -7.2518 O   0  0  0  0  0  0  0  0  0  0  0  0
   51.7733  -10.3335   -6.8459 C   0  0  1  0  0  0  0  0  0  0  0  0
   52.1798  -11.7558   -7.1226 C   0  0  0  0  0  0  0  0  0  0  0  0
   52.9797  -12.3385   -6.3411 O   0  0  0  0  0  0  0  0  0  0  0  0
   50.5261   -9.9996   -7.6576 C   0  0  2  0  0  0  0  0  0  0  0  0
   51.6162  -12.4584   -8.2402 N   0  0  0  0  0  0  0  0  0  0  0  0
   51.4657  -13.9158   -8.2819 C   0  0  2  0  0  0  0  0  0  0  0  0
   51.9483  -14.4486   -9.6006 C   0  0  0  0  0  0  0  0  0  0  0  0
   51.8103  -15.6724   -9.8698 O   0  0  0  0  0  0  0  0  0  0  0  0
   52.4882  -13.5908  -10.5537 O   0  0  0  0  0  0  0  0  0  0  0  0
   49.9985  -14.2877   -8.0702 C   0  0  2  0  0  0  0  0  0  0  0  0
   51.9969   -5.7072   -4.4135 H   0  0  0  0  0  0  0  0  0  0  0  0
   49.7427   -9.2567   -4.8736 H   0  0  0  0  0  0  0  0  0  0  0  0
   47.8211   -8.1345   -3.8382 H   0  0  0  0  0  0  0  0  0  0  0  0
   48.0019   -4.6931   -2.3763 H   0  0  0  0  0  0  0  0  0  0  0  0
   46.6820   -6.0941   -4.7447 H   0  0  0  0  0  0  0  0  0  0  0  0
   46.4001   -4.0507   -5.3496 H   0  0  0  0  0  0  0  0  0  0  0  0
   44.6461   -6.1976   -3.7184 H   0  0  0  0  0  0  0  0  0  0  0  0
   45.6398   -5.3758   -1.0073 H   0  0  0  0  0  0  0  0  0  0  0  0
   44.3407   -3.9728   -3.8126 H   0  0  0  0  0  0  0  0  0  0  0  0
   44.1077   -7.4669   -2.1773 H   0  0  0  0  0  0  0  0  0  0  0  0
   44.5166   -7.1906   -0.4319 H   0  0  0  0  0  0  0  0  0  0  0  0
   45.0737   -7.9762    1.0314 H   0  0  0  0  0  0  0  0  0  0  0  0
   49.3838  -11.8075   -1.4234 H   0  0  0  0  0  0  0  0  0  0  0  0
   47.6861  -11.7575   -3.6897 H   0  0  0  0  0  0  0  0  0  0  0  0
   49.8161  -11.9266   -4.4473 H   0  0  0  0  0  0  0  0  0  0  0  0
   50.9285   -9.7887   -2.7607 H   0  0  0  0  0  0  0  0  0  0  0  0
   51.9587  -12.4055   -0.8887 H   0  0  0  0  0  0  0  0  0  0  0  0
   50.8191  -11.7294    0.3356 H   0  0  0  0  0  0  0  0  0  0  0  0
   51.8388  -10.6141   -0.6661 H   0  0  0  0  0  0  0  0  0  0  0  0
   49.8475   -8.9011   -4.8830 H   0  0  0  0  0  0  0  0  0  0  0  0
   49.7899  -11.0954   -7.0101 H   0  0  0  0  0  0  0  0  0  0  0  0
   49.0359   -9.3799   -8.2188 H   0  0  0  0  0  0  0  0  0  0  0  0
   47.1878  -10.0285   -6.9437 H   0  0  0  0  0  0  0  0  0  0  0  0
   47.3023  -12.5768   -5.4630 H   0  0  0  0  0  0  0  0  0  0  0  0
   48.3122  -12.5938   -6.9432 H   0  0  0  0  0  0  0  0  0  0  0  0
   46.1181  -11.2969   -7.5917 H   0  0  0  0  0  0  0  0  0  0  0  0
   52.5701   -9.6510   -7.2114 H   0  0  0  0  0  0  0  0  0  0  0  0
   49.8608   -9.3388   -7.0619 H   0  0  0  0  0  0  0  0  0  0  0  0
   49.9700  -10.9257   -7.9177 H   0  0  0  0  0  0  0  0  0  0  0  0
   50.8042   -9.4683   -8.5934 H   0  0  0  0  0  0  0  0  0  0  0  0
   51.3317  -11.9076   -9.0812 H   0  0  0  0  0  0  0  0  0  0  0  0
   52.0608  -14.3912   -7.4713 H   0  0  0  0  0  0  0  0  0  0  0  0
   53.2676  -12.9846  -10.3276 H   0  0  0  0  0  0  0  0  0  0  0  0
   49.3722  -13.3742   -7.9778 H   0  0  0  0  0  0  0  0  0  0  0  0
   49.8936  -14.8876   -7.1415 H   0  0  0  0  0  0  0  0  0  0  0  0
   49.6298  -14.8957   -8.9252 H   0  0  0  0  0  0  0  0  0  0  0  0
  1  2  1  0
  2  3  1  0
  3  4  1  0
  4  5  1  0
  1  6  1  0
  5  6  2  0
  2  7  2  0
  4  8  2  0
  9  1  1  0
  9 10  1  0
 10 11  1  0
 10 12  1  0
 12 13  1  0
  9 14  1  0
 13 14  1  0
 12 15  1  0
 13 16  1  0
 16 17  1  0
 18 17  1  6
 18 19  2  0
 18 20  1  0
 18 21  1  0
 22 21  1  1
 22 23  2  0
 22 24  1  0
 22 25  1  0
 26 25  1  0
 26 27  1  0
 27 28  1  0
 28 29  1  0
 29 30  2  0
 29 31  1  0
 27 32  1  0
 32 33  1  0
 32 34  1  0
 34 35  1  0
 34 36  1  0
 26 37  1  0
 36 37  1  0
 36 38  1  0
 38 39  1  0
 33 40  1  0
 40 41  1  0
 41 42  2  0
 40 43  1  0
 41 44  1  0
 44 45  1  0
 45 46  1  0
 46 47  2  0
 46 48  1  0
 45 49  1  0
  3 50  1  0
  5 51  1  0
  6 52  1  0
  9 53  1  1
 10 54  1  6
 11 55  1  0
 12 56  1  6
 13 57  1  1
 15 58  1  0
 16 59  1  6
 16 60  1  0
 20 61  1  0
 24 62  1  0
 26 63  1  1
 27 64  1  6
 28 65  1  0
 31 66  1  6
 31 67  1  0
 31 68  1  0
 32 69  1  1
 34 70  1  6
 35 71  1  0
 36 72  1  6
 38 73  1  1
 38 74  1  0
 39 75  1  0
 40 76  1  6
 43 77  1  1
 43 78  1  0
 43 79  1  0
 44 80  1  0
 45 81  1  1
 48 82  1  0
 49 83  1  1
 49 84  1  0
 49 85  1  0
M  END
