7TE8_P0T_D_201
     RDKit          3D

 53 54  0  0  0  0  0  0  0  0999 V2000
  -55.2901  -57.7958   34.3176 C   0  0  0  0  0  0  0  0  0  0  0  0
  -58.4154  -56.7761   34.8430 C   0  0  0  0  0  0  0  0  0  0  0  0
  -58.9184  -58.3287   36.6691 C   0  0  0  0  0  0  0  0  0  0  0  0
  -59.3121  -61.5920   32.0313 C   0  0  0  0  0  0  0  0  0  0  0  0
  -55.5276  -56.5337   34.7226 C   0  0  0  0  0  0  0  0  0  0  0  0
  -56.4233  -58.5756   33.6320 C   0  0  2  0  0  0  0  0  0  0  0  0
  -57.4536  -59.1452   34.6457 C   0  0  2  0  0  0  0  0  0  0  0  0
  -55.8274  -59.7578   32.8189 C   0  0  0  0  0  0  0  0  0  0  0  0
  -56.9256  -60.4989   31.9910 C   0  0  0  0  0  0  0  0  0  0  0  0
  -58.4673  -60.0986   33.9937 C   0  0  0  0  0  0  0  0  0  0  0  0
  -58.2634  -58.0887   35.4077 C   0  0  0  0  0  0  0  0  0  0  0  0
  -58.2206  -60.7803   32.7897 C   0  0  0  0  0  0  0  0  0  0  0  0
  -59.7817  -56.0203   36.7716 C   0  0  0  0  0  0  0  0  0  0  0  0
  -59.1544  -55.7736   35.5190 C   0  0  0  0  0  0  0  0  0  0  0  0
  -59.6538  -57.3150   37.3438 C   0  0  0  0  0  0  0  0  0  0  0  0
  -60.5820  -54.8845   37.5006 C   0  0  0  0  0  0  0  0  0  0  0  0
  -53.9237  -58.4241   34.5569 C   0  0  0  0  0  0  0  0  0  0  0  0
  -61.9998  -55.3009   37.9673 C   0  0  0  0  0  0  0  0  0  0  0  0
  -62.4280  -54.6927   39.3212 C   0  0  0  0  0  0  0  0  0  0  0  0
  -63.9531  -54.6318   39.6066 C   0  0  0  0  0  0  0  0  0  0  0  0
  -64.4726  -55.9552   40.2142 C   0  0  0  0  0  0  0  0  0  0  0  0
  -57.7967  -56.5417   33.6117 O   0  0  0  0  0  0  0  0  0  0  0  0
  -58.7816  -59.5877   37.2256 O   0  0  0  0  0  0  0  0  0  0  0  0
  -58.8885  -62.0189   31.1463 H   0  0  0  0  0  0  0  0  0  0  0  0
  -59.6794  -62.3732   32.6635 H   0  0  0  0  0  0  0  0  0  0  0  0
  -60.1183  -60.9417   31.7629 H   0  0  0  0  0  0  0  0  0  0  0  0
  -56.5320  -56.2620   34.4731 H   0  0  0  0  0  0  0  0  0  0  0  0
  -55.3931  -56.4678   35.7821 H   0  0  0  0  0  0  0  0  0  0  0  0
  -54.8464  -55.8684   34.2346 H   0  0  0  0  0  0  0  0  0  0  0  0
  -56.9324  -57.8856   32.9920 H   0  0  0  0  0  0  0  0  0  0  0  0
  -56.8265  -59.6655   35.3392 H   0  0  0  0  0  0  0  0  0  0  0  0
  -55.0845  -59.3785   32.1487 H   0  0  0  0  0  0  0  0  0  0  0  0
  -55.4003  -60.4560   33.5081 H   0  0  0  0  0  0  0  0  0  0  0  0
  -57.1755  -59.8949   31.1439 H   0  0  0  0  0  0  0  0  0  0  0  0
  -56.5189  -61.4477   31.7094 H   0  0  0  0  0  0  0  0  0  0  0  0
  -59.3744  -60.2455   34.4633 H   0  0  0  0  0  0  0  0  0  0  0  0
  -59.2399  -54.8386   35.0907 H   0  0  0  0  0  0  0  0  0  0  0  0
  -60.0965  -57.5207   38.2531 H   0  0  0  0  0  0  0  0  0  0  0  0
  -60.0226  -54.5793   38.3602 H   0  0  0  0  0  0  0  0  0  0  0  0
  -60.7132  -54.0970   36.7882 H   0  0  0  0  0  0  0  0  0  0  0  0
  -53.1792  -57.8794   35.0196 H   0  0  0  0  0  0  0  0  0  0  0  0
  -53.7423  -59.3947   34.2565 H   0  0  0  0  0  0  0  0  0  0  0  0
  -62.7025  -54.9894   37.2229 H   0  0  0  0  0  0  0  0  0  0  0  0
  -61.9788  -56.3622   38.1013 H   0  0  0  0  0  0  0  0  0  0  0  0
  -61.9760  -55.2759   40.0961 H   0  0  0  0  0  0  0  0  0  0  0  0
  -62.1075  -53.6725   39.2854 H   0  0  0  0  0  0  0  0  0  0  0  0
  -64.1460  -53.8350   40.2941 H   0  0  0  0  0  0  0  0  0  0  0  0
  -64.4605  -54.4680   38.6790 H   0  0  0  0  0  0  0  0  0  0  0  0
  -63.9773  -56.1391   41.1447 H   0  0  0  0  0  0  0  0  0  0  0  0
  -65.5271  -55.8819   40.3799 H   0  0  0  0  0  0  0  0  0  0  0  0
  -64.2728  -56.7606   39.5385 H   0  0  0  0  0  0  0  0  0  0  0  0
  -57.3153  -57.2269   33.1912 H   0  0  0  0  0  0  0  0  0  0  0  0
  -58.2954  -60.2493   36.7740 H   0  0  0  0  0  0  0  0  0  0  0  0
  1  5  1  0
  6  1  1  0
  6  7  1  0
  6  8  1  0
  8  9  1  0
  7 10  1  0
  2 11  4  0
  7 11  1  0
  3 11  4  0
  4 12  1  0
  9 12  1  0
 10 12  2  0
  2 14  4  0
 13 14  4  0
 13 15  4  0
  3 15  4  0
 13 16  1  0
  1 17  2  3
 16 18  1  0
 18 19  1  0
 19 20  1  0
 20 21  1  0
  2 22  1  0
  3 23  1  0
  4 24  1  0
  4 25  1  0
  4 26  1  0
  5 27  1  0
  5 28  1  0
  5 29  1  0
  6 30  1  1
  7 31  1  6
  8 32  1  0
  8 33  1  0
  9 34  1  0
  9 35  1  0
 10 36  1  0
 14 37  1  0
 15 38  1  0
 16 39  1  0
 16 40  1  0
 17 41  1  0
 17 42  1  0
 18 43  1  0
 18 44  1  0
 19 45  1  0
 19 46  1  0
 20 47  1  0
 20 48  1  0
 21 49  1  0
 21 50  1  0
 21 51  1  0
 22 52  1  0
 23 53  1  0
M  END
