7CD9_FVR_A_501
     RDKit          3D

 33 37  0  0  0  0  0  0  0  0999 V2000
   28.0340    1.2671    8.0929 C   0  0  0  0  0  0  0  0  0  0  0  0
   27.1294    1.9172    7.0978 C   0  0  1  0  0  0  0  0  0  0  0  0
   26.6385    3.2837    7.5635 C   0  0  0  0  0  0  0  0  0  0  0  0
   26.7790    1.7443    4.6622 C   0  0  0  0  0  0  0  0  0  0  0  0
   26.4683    1.3240    2.3717 C   0  0  0  0  0  0  0  0  0  0  0  0
   25.1024    1.2891    2.5249 C   0  0  0  0  0  0  0  0  0  0  0  0
   24.6062    1.4923    3.7975 C   0  0  0  0  0  0  0  0  0  0  0  0
   23.2303    1.4284    3.7899 C   0  0  0  0  0  0  0  0  0  0  0  0
   24.2447    6.1263   10.9889 C   0  0  0  0  0  0  0  0  0  0  0  0
   24.6223    4.9815   11.6403 C   0  0  0  0  0  0  0  0  0  0  0  0
   25.3942    4.0179   11.0245 C   0  0  0  0  0  0  0  0  0  0  0  0
   25.7860    4.2306    9.7193 C   0  0  0  0  0  0  0  0  0  0  0  0
   25.4363    5.3621    9.0148 C   0  0  0  0  0  0  0  0  0  0  0  0
   24.6616    6.2925    9.6846 C   0  0  0  0  0  0  0  0  0  0  0  0
   26.6088    3.1991    9.0700 C   0  0  2  0  0  0  0  0  0  0  0  0
   28.0529    3.2314    9.5250 C   0  0  0  0  0  0  0  0  0  0  0  0
   22.8899    1.1784    2.4670 C   0  0  0  0  0  0  0  0  0  0  0  0
   28.7284    1.5884    3.2844 C   0  0  0  0  0  0  0  0  0  0  0  0
   30.1321    2.2418    8.8076 C   0  0  0  0  0  0  0  0  0  0  0  0
   22.9194    6.8553   12.9428 C   0  0  0  0  0  0  0  0  0  0  0  0
   22.1445    8.0595   13.3924 C   0  0  0  0  0  0  0  0  0  0  0  0
   21.9375    9.0345   12.4357 C   0  0  0  0  0  0  0  0  0  0  0  0
   21.2282   10.1605   12.8078 C   0  0  0  0  0  0  0  0  0  0  0  0
   20.7381   10.3094   14.1008 C   0  0  0  0  0  0  0  0  0  0  0  0
   20.9535    9.3266   15.0439 C   0  0  0  0  0  0  0  0  0  0  0  0
   21.6670    8.1891   14.6783 C   0  0  0  0  0  0  0  0  0  0  0  0
   28.7200    2.1161    8.9715 N   0  0  0  0  0  0  0  0  0  0  0  0
   27.6607    1.9791    5.7542 N   0  0  0  0  0  0  0  0  0  0  0  0
   27.2800    1.5466    3.4193 N   0  0  0  0  0  0  0  0  0  0  0  0
   25.4443    1.7127    4.8260 N   0  0  0  0  0  0  0  0  0  0  0  0
   24.0345    1.1000    1.7317 N   0  0  0  0  0  0  0  0  0  0  0  0
   26.9585    1.1410    1.2142 O   0  0  0  0  0  0  0  0  0  0  0  0
   23.4732    7.0384   11.6764 O   0  0  0  0  0  0  0  0  0  0  0  0
  1  2  1  0
  3  2  1  6
  5  6  1  0
  6  7  2  0
  7  8  1  0
  9 10  2  0
 10 11  1  0
 11 12  2  0
 12 13  1  0
 13 14  2  0
  9 14  1  0
  3 15  1  0
 15 12  1  1
 15 16  1  0
  8 17  2  0
 20 21  1  0
 21 22  2  0
 22 23  1  0
 23 24  2  0
 24 25  1  0
 21 26  1  0
 25 26  2  0
 19 27  1  1
  1 27  1  6
 16 27  1  6
  2 28  1  6
  4 28  1  0
  4 29  1  0
  5 29  1  0
 18 29  1  6
  7 30  1  0
  4 30  2  0
 17 31  1  0
  6 31  1  0
  5 32  2  0
  9 33  1  0
 20 33  1  1
M  END
$$$$
