7NF0_BYN_B_702
     RDKit          3D

 68 71  0  0  0  0  0  0  0  0999 V2000
    1.1920   -2.8465    3.1603 C   0  0  0  0  0  0  0  0  0  0  0  0
    2.1360   -2.2445    2.3932 N   0  0  0  0  0  4  0  0  0  0  0  0
    1.8410   -1.1440    1.6485 C   0  0  0  0  0  0  0  0  0  0  0  0
    0.5367   -0.5982    1.6840 C   0  0  0  0  0  0  0  0  0  0  0  0
   -0.4233   -1.2660    2.4558 C   0  0  0  0  0  0  0  0  0  0  0  0
   -0.0746   -2.3641    3.1773 N   0  0  0  0  0  0  0  0  0  0  0  0
    0.1329    0.5898    0.9527 N   0  0  0  0  0  0  0  0  0  0  0  0
   -1.2649    0.7227    0.5850 C   0  0  0  0  0  0  0  0  0  0  0  0
   -2.2164   -0.0314    1.3011 C   0  0  0  0  0  0  0  0  0  0  0  0
   -1.7827   -0.7963    2.4543 N   0  0  0  0  0  0  0  0  0  0  0  0
   -1.6681    1.5769   -0.4840 C   0  0  0  0  0  0  0  0  0  0  0  0
   -3.0103    1.4458   -0.9816 C   0  0  0  0  0  0  0  0  0  0  0  0
   -3.9531    0.6798   -0.2469 C   0  0  0  0  0  0  0  0  0  0  0  0
   -3.5417   -0.0585    0.8624 C   0  0  0  0  0  0  0  0  0  0  0  0
    1.1060    1.6412    0.6085 C   0  0  1  0  0  0  0  0  0  0  0  0
    0.4141    2.8925    0.0657 C   0  0  0  0  0  0  0  0  0  0  0  0
   -0.6160    2.5673   -1.0514 C   0  0  2  0  0  0  0  0  0  0  0  0
    1.5224   -3.9630    3.9214 O   0  0  0  0  0  0  0  0  0  0  0  0
   -5.4080    0.5918   -0.6477 C   0  0  0  0  0  0  0  0  0  0  0  0
   -3.4660    2.0865   -2.2763 C   0  0  0  0  0  0  0  0  0  0  0  0
    1.8876    1.9795    1.7272 O   0  0  0  0  0  0  0  0  0  0  0  0
   -1.2208    3.9400   -1.4573 C   0  0  0  0  0  0  0  0  0  0  0  0
    0.1160    1.9402   -2.2630 C   0  0  0  0  0  0  0  0  0  0  0  0
   -2.6973   -1.1967    3.5435 C   0  0  0  0  0  0  0  0  0  0  0  0
    2.7399   -0.6419    0.9242 O   0  0  0  0  0  0  0  0  0  0  0  0
   -2.9380   -0.0728    4.5946 C   0  0  1  0  0  0  0  0  0  0  0  0
   -2.0978    1.2286    4.3904 C   0  0  1  0  0  0  0  0  0  0  0  0
   -0.8653    1.1068    3.4558 C   0  0  1  0  0  0  0  0  0  0  0  0
   -1.1955    0.5241    2.0663 C   0  0  0  0  0  0  0  0  0  0  0  0
   -4.3043    0.2616    4.5901 O   0  0  0  0  0  0  0  0  0  0  0  0
   -2.9251    2.2775    3.9502 O   0  0  0  0  0  0  0  0  0  0  0  0
   -0.2014    2.3353    3.3435 O   0  0  0  0  0  0  0  0  0  0  0  0
   -1.4053   -0.8672    2.1457 O   0  0  0  0  0  0  0  0  0  0  0  0
   -0.7151   -1.4368    3.5985 P   0  0  2  0  0  5  0  0  0  0  0  0
   -0.5238   -0.3008    4.5805 O   0  0  0  0  0  0  0  0  0  0  0  0
    0.7892   -2.1354    3.2666 O   0  0  0  0  0  0  0  0  0  0  0  0
   -1.7296   -2.6074    4.2800 O   0  0  0  0  0  0  0  0  0  0  0  0
    3.1041   -2.6383    2.3751 H   0  0  0  0  0  0  0  0  0  0  0  0
   -4.2617   -0.7048    1.3406 H   0  0  0  0  0  0  0  0  0  0  0  0
    1.7842    1.2671   -0.1848 H   0  0  0  0  0  0  0  0  0  0  0  0
   -0.1077    3.4089    0.9040 H   0  0  0  0  0  0  0  0  0  0  0  0
    1.1996    3.5867   -0.3107 H   0  0  0  0  0  0  0  0  0  0  0  0
    0.8281   -4.4216    4.4998 H   0  0  0  0  0  0  0  0  0  0  0  0
   -6.0397    0.2113    0.1834 H   0  0  0  0  0  0  0  0  0  0  0  0
   -5.5188   -0.0967   -1.5115 H   0  0  0  0  0  0  0  0  0  0  0  0
   -5.7996    1.5964   -0.9130 H   0  0  0  0  0  0  0  0  0  0  0  0
   -4.2847    1.5167   -2.7584 H   0  0  0  0  0  0  0  0  0  0  0  0
   -3.8293    3.1174   -2.0861 H   0  0  0  0  0  0  0  0  0  0  0  0
   -2.6719    2.0774   -3.0388 H   0  0  0  0  0  0  0  0  0  0  0  0
    1.2651    2.2275    2.4591 H   0  0  0  0  0  0  0  0  0  0  0  0
   -0.4434    4.7347   -1.4798 H   0  0  0  0  0  0  0  0  0  0  0  0
   -1.6406    3.9434   -2.4804 H   0  0  0  0  0  0  0  0  0  0  0  0
   -2.0012    4.2547   -0.7314 H   0  0  0  0  0  0  0  0  0  0  0  0
    1.0164    2.5365   -2.5259 H   0  0  0  0  0  0  0  0  0  0  0  0
    0.4342    0.8994   -2.0418 H   0  0  0  0  0  0  0  0  0  0  0  0
   -0.5210    1.9003   -3.1657 H   0  0  0  0  0  0  0  0  0  0  0  0
   -3.6780   -1.5340    3.1649 H   0  0  0  0  0  0  0  0  0  0  0  0
   -2.2541   -2.0806    4.0528 H   0  0  0  0  0  0  0  0  0  0  0  0
   -2.7381   -0.4713    5.6051 H   0  0  0  0  0  0  0  0  0  0  0  0
   -1.6964    1.5029    5.3962 H   0  0  0  0  0  0  0  0  0  0  0  0
   -0.1787    0.3782    3.9496 H   0  0  0  0  0  0  0  0  0  0  0  0
   -0.3716    0.7812    1.3602 H   0  0  0  0  0  0  0  0  0  0  0  0
   -2.1294    1.0141    1.7084 H   0  0  0  0  0  0  0  0  0  0  0  0
   -4.5201    0.6278    3.6924 H   0  0  0  0  0  0  0  0  0  0  0  0
   -2.4725    3.1292    4.1869 H   0  0  0  0  0  0  0  0  0  0  0  0
    0.7090    2.1414    2.9980 H   0  0  0  0  0  0  0  0  0  0  0  0
    1.3428   -1.3901    2.9223 H   0  0  0  0  0  0  0  0  0  0  0  0
   -1.2104   -2.9828    5.0352 H   0  0  0  0  0  0  0  0  0  0  0  0
  1  2  4  0
  2  3  4  0
  3  4  4  0
  4  5  4  0
  5  6  4  0
  1  6  4  0
  4  7  1  0
  7  8  1  0
  8  9  4  0
  9 10  1  0
  5 10  1  0
  8 11  4  0
 11 12  4  0
 12 13  4  0
 13 14  4  0
  9 14  4  0
  7 15  1  0
 15 16  1  0
 11 17  1  0
 16 17  1  0
  1 18  1  0
 13 19  1  0
 12 20  1  0
 15 21  1  0
 17 22  1  6
 17 23  1  0
 10 24  1  0
  3 25  2  0
 24 26  1  0
 26 27  1  0
 27 28  1  0
 28 29  1  0
 26 30  1  0
 27 31  1  0
 28 32  1  0
 29 33  1  0
 34 33  1  6
 34 35  2  0
 34 36  1  0
 34 37  1  0
  2 38  1  0
 14 39  1  0
 15 40  1  6
 16 41  1  0
 16 42  1  0
 18 43  1  0
 19 44  1  0
 19 45  1  0
 19 46  1  0
 20 47  1  0
 20 48  1  0
 20 49  1  0
 21 50  1  0
 22 51  1  0
 22 52  1  0
 22 53  1  0
 23 54  1  0
 23 55  1  0
 23 56  1  0
 24 57  1  0
 24 58  1  0
 26 59  1  1
 27 60  1  1
 28 61  1  1
 29 62  1  0
 29 63  1  0
 30 64  1  0
 31 65  1  0
 32 66  1  0
 36 67  1  0
 37 68  1  0
M  CHG  1   2   1
M  END
