6ZXQ_IMO_A_503
     RDKit          3D

 27 29  0  0  0  0  0  0  0  0999 V2000
  -13.6931    5.1715    6.1898 P   0  0  2  0  0  0  0  0  0  0  0  0
  -12.7215    5.1114    5.0739 O   0  0  0  0  0  0  0  0  0  0  0  0
  -13.0087    1.4487    3.9493 C   0  0  0  0  0  0  0  0  0  0  0  0
  -15.3526   -1.9893    5.0365 C   0  0  1  0  0  0  0  0  0  0  0  0
  -14.6708   -3.0273    5.5247 C   0  0  1  0  0  0  0  0  0  0  0  0
  -15.5746   -4.2986    5.1080 C   0  0  1  0  0  0  0  0  0  0  0  0
  -16.8730   -3.9297    5.3539 C   0  0  1  0  0  0  0  0  0  0  0  0
  -17.3751   -4.3014    6.7758 C   0  0  0  0  0  0  0  0  0  0  0  0
  -14.8936    6.0097    5.8581 O   0  0  0  0  0  0  0  0  0  0  0  0
  -13.1120    5.5005    7.5156 O   0  0  0  0  0  0  0  0  0  0  0  0
  -17.6562   -2.8680    8.9839 P   0  0  2  0  0  0  0  0  0  0  0  0
  -17.4017   -1.3492    9.0177 O   0  0  0  0  0  0  0  0  0  0  0  0
  -19.1246   -3.1650    8.6922 O   0  0  0  0  0  0  0  0  0  0  0  0
  -17.1445   -3.5182   10.2836 O   0  0  0  0  0  0  0  0  0  0  0  0
  -16.7454   -3.5133    7.7584 O   0  0  0  0  0  0  0  0  0  0  0  0
  -16.8584   -2.3980    5.2978 O   0  0  0  0  0  0  0  0  0  0  0  0
  -15.3341   -0.7350    5.7346 N   0  0  0  0  0  0  0  0  0  0  0  0
  -14.5506    0.2600    5.2387 C   0  0  0  0  0  0  0  0  0  0  0  0
  -13.6856    0.2929    4.2038 N   0  0  0  0  0  0  0  0  0  0  0  0
  -13.2250    2.5560    4.6942 N   0  0  0  0  0  0  0  0  0  0  0  0
  -14.0843    2.5273    5.7007 C   0  0  0  0  0  0  0  0  0  0  0  0
  -14.3554    3.6648    6.4676 O   0  0  0  0  0  0  0  0  0  0  0  0
  -14.7658    1.3444    5.9961 C   0  0  0  0  0  0  0  0  0  0  0  0
  -15.6668    1.0596    6.9576 N   0  0  0  0  0  0  0  0  0  0  0  0
  -16.0230   -0.2236    6.7490 C   0  0  0  0  0  0  0  0  0  0  0  0
  -13.3720   -3.1136    4.8760 O   0  0  0  0  0  0  0  0  0  0  0  0
  -15.4218   -4.5297    3.7188 O   0  0  0  0  0  0  0  0  0  0  0  0
  1  2  1  6
  4  5  1  0
  5  6  1  0
  6  7  1  0
  7  8  1  1
  1  9  1  0
  1 10  2  0
 11 12  1  1
 11 13  1  0
 11 14  2  0
  8 15  1  0
 11 15  1  0
  4 16  1  0
  7 16  1  0
  4 17  1  1
 17 18  1  0
  3 19  2  0
 18 19  1  0
  3 20  1  0
 20 21  2  0
  1 22  1  0
 21 22  1  0
 18 23  2  0
 21 23  1  0
 23 24  1  0
 17 25  1  0
 24 25  2  0
  5 26  1  6
  6 27  1  6
M  END
