7WKL_CAQ_B_401
     RDKit          3D

  8  8  0  0  0  0  0  0  0  0999 V2000
   26.2645    8.2829   65.6890 C   0  0  0  0  0  0  0  0  0  0  0  0
   27.6013    8.5459   65.4524 C   0  0  0  0  0  0  0  0  0  0  0  0
   28.4129    8.9800   66.4919 C   0  0  0  0  0  0  0  0  0  0  0  0
   29.7561    9.2608   66.2716 O   0  0  0  0  0  0  0  0  0  0  0  0
   27.9068    9.1576   67.7614 C   0  0  0  0  0  0  0  0  0  0  0  0
   28.7606    9.6063   68.7780 O   0  0  0  0  0  0  0  0  0  0  0  0
   26.5631    8.8997   68.0053 C   0  0  0  0  0  0  0  0  0  0  0  0
   25.7477    8.4636   66.9687 C   0  0  0  0  0  0  0  0  0  0  0  0
  1  2  2  0
  2  3  1  0
  3  4  1  0
  3  5  2  0
  5  6  1  0
  5  7  1  0
  1  8  1  0
  7  8  2  0
M  END
