
     RDKit          3D

 17 16  0  0  0  0  0  0  0  0999 V2000
   26.6995   51.3248   16.4144 C   0  0  0  0  0  0  0  0  0  0  0  0
   25.3551   51.9765   16.1272 C   0  0  0  0  0  0  0  0  0  0  0  0
   25.4584   53.4996   16.1474 C   0  0  0  0  0  0  0  0  0  0  0  0
   25.3848   54.1184   17.5476 C   0  0  0  0  0  0  0  0  0  0  0  0
   24.9378   55.5849   17.5806 C   0  0  0  0  0  0  0  0  0  0  0  0
   23.4323   55.7476   17.8139 C   0  0  0  0  0  0  0  0  0  0  0  0
   22.8882   54.8394   18.9227 C   0  0  0  0  0  0  0  0  0  0  0  0
   22.1452   55.5486   20.0599 C   0  0  0  0  0  0  0  0  0  0  0  0
   22.9374   55.5861   21.3689 C   0  0  0  0  0  0  0  0  0  0  0  0
   23.1453   54.2016   21.9908 C   0  0  0  0  0  0  0  0  0  0  0  0
   21.9562   53.7334   22.8342 C   0  0  0  0  0  0  0  0  0  0  0  0
   22.4004   52.7431   23.9134 C   0  0  0  0  0  0  0  0  0  0  0  0
   23.1657   51.5380   23.3579 C   0  0  0  0  0  0  0  0  0  0  0  0
   23.2404   50.3124   24.2737 C   0  0  0  0  0  0  0  0  0  0  0  0
   23.1510   48.9829   23.5220 C   0  0  0  0  0  0  0  0  0  0  0  0
   21.8220   48.8575   22.7759 C   0  0  0  0  0  0  0  0  0  0  0  0
   21.1414   47.5300   23.0696 C   0  0  0  0  0  0  0  0  0  0  0  0
  1  2  1  0
  2  3  1  0
  3  4  1  0
  4  5  1  0
  5  6  1  0
  6  7  1  0
  7  8  1  0
  8  9  1  0
  9 10  1  0
 10 11  1  0
 11 12  1  0
 12 13  1  0
 13 14  1  0
 14 15  1  0
 15 16  1  0
 16 17  1  0
M  END
