1P2Y_NCT_A_440
     RDKit          3D

 26 27  0  0  0  0  0  0  0  0999 V2000
   14.4686   11.1156   42.5226 N   0  0  0  0  0  0  0  0  0  0  0  0
   13.8936   11.4089   41.3262 C   0  0  0  0  0  0  0  0  0  0  0  0
   14.1677   10.6273   40.1893 C   0  0  0  0  0  0  0  0  0  0  0  0
   15.0113    9.5096   40.3443 C   0  0  0  0  0  0  0  0  0  0  0  0
   15.5894    9.2327   41.5845 C   0  0  0  0  0  0  0  0  0  0  0  0
   15.3078   10.0584   42.6720 C   0  0  0  0  0  0  0  0  0  0  0  0
   13.2899   12.4161   38.6426 N   0  0  0  0  0  0  0  0  0  0  0  0
   13.4681   10.9687   38.8767 C   0  0  1  0  0  0  0  0  0  0  0  0
   14.0761   10.3998   37.5972 C   0  0  1  0  0  0  0  0  0  0  0  0
   13.4937   11.2761   36.5023 C   0  0  2  0  0  0  0  0  0  0  0  0
   12.9157   12.4984   37.2197 C   0  0  2  0  0  0  0  0  0  0  0  0
   14.5241   13.1964   38.8807 C   0  0  2  0  0  0  0  0  0  0  0  0
   13.2248   12.2573   41.2573 H   0  0  0  0  0  0  0  0  0  0  0  0
   15.2221    8.8389   39.5243 H   0  0  0  0  0  0  0  0  0  0  0  0
   16.2442    8.3791   41.7034 H   0  0  0  0  0  0  0  0  0  0  0  0
   15.7482    9.8530   43.6385 H   0  0  0  0  0  0  0  0  0  0  0  0
   12.4499   10.5225   38.9655 H   0  0  0  0  0  0  0  0  0  0  0  0
   15.1815   10.5150   37.5919 H   0  0  0  0  0  0  0  0  0  0  0  0
   13.8065    9.3303   37.4553 H   0  0  0  0  0  0  0  0  0  0  0  0
   12.6910   10.7340   35.9560 H   0  0  0  0  0  0  0  0  0  0  0  0
   14.2847   11.5786   35.7813 H   0  0  0  0  0  0  0  0  0  0  0  0
   13.2555   13.4413   36.7335 H   0  0  0  0  0  0  0  0  0  0  0  0
   11.8064   12.4778   37.1458 H   0  0  0  0  0  0  0  0  0  0  0  0
   15.0703   13.3464   37.9245 H   0  0  0  0  0  0  0  0  0  0  0  0
   15.2007   12.6908   39.6039 H   0  0  0  0  0  0  0  0  0  0  0  0
   14.2810   14.2109   39.2567 H   0  0  0  0  0  0  0  0  0  0  0  0
  1  2  2  0
  2  3  1  0
  3  4  2  0
  4  5  1  0
  1  6  1  0
  5  6  2  0
  8  3  1  0
  7  8  1  0
  8  9  1  0
  9 10  1  0
  7 11  1  0
 10 11  1  0
  7 12  1  0
  2 13  1  0
  4 14  1  0
  5 15  1  0
  6 16  1  0
  8 17  1  1
  9 18  1  1
  9 19  1  0
 10 20  1  6
 10 21  1  0
 11 22  1  6
 11 23  1  0
 12 24  1  6
 12 25  1  0
 12 26  1  0
M  END
