@<TRIPOS>MOLECULE
1MEH_MOA_A_600
 43 44 0 0 0
SMALL
GASTEIGER

@<TRIPOS>ATOM
      1 C          -2.6095   -1.5077   -3.6099 C.2     1  UNL1        0.3435
      2 C           0.3630    0.6260    1.2272 C.2     1  UNL1       -0.0805
      3 C          -0.6104    0.1180    2.0166 C.2     1  UNL1       -0.0757
      4 C          -0.2568   -0.3434    3.4161 C.3     1  UNL1       -0.0219
      5 C          -0.0052    0.8358    4.3644 C.3     1  UNL1        0.0484
      6 C          -1.2502    1.6406    4.5786 C.2     1  UNL1        0.3050
      7 C           1.8375   -2.9523   -2.7262 C.3     1  UNL1       -0.0358
      8 C           2.5091   -1.8175    0.2937 C.3     1  UNL1        0.0788
      9 C          -2.0381   -0.0062    1.5436 C.3     1  UNL1       -0.0438
     10 C          -0.9496   -3.0445   -4.0604 C.3     1  UNL1        0.1191
     11 C          -0.4922   -2.0448   -3.0313 C.ar    1  UNL1        0.0136
     12 C           0.7500   -1.9685   -2.3875 C.ar    1  UNL1       -0.0011
     13 C           0.9377   -0.9542   -1.4126 C.ar    1  UNL1        0.1303
     14 C          -0.0848    0.0054   -1.1669 C.ar    1  UNL1        0.0404
     15 C          -1.3129   -0.0780   -1.8672 C.ar    1  UNL1        0.1381
     16 C          -1.4875   -1.1299   -2.7747 C.ar    1  UNL1        0.1074
     17 C           0.1559    1.1311   -0.1803 C.3     1  UNL1       -0.0023
     18 O          -3.7265   -0.9319   -3.6707 O.2     1  UNL1       -0.2448
     19 O          -2.2849   -2.6318   -4.3526 O.3     1  UNL1       -0.4563
     20 O           2.1385   -0.8633   -0.6974 O.3     1  UNL1       -0.4944
     21 O          -2.3143    0.8699   -1.6461 O.3     1  UNL1       -0.5055
     22 O          -2.2191    1.1932    5.4711 O.3     1  UNL1       -0.4806
     23 O          -1.4372    2.7016    3.9250 O.2     1  UNL1       -0.2510
     24 H           1.3722    0.6985    1.6248 H       1  UNL1        0.0575
     25 H           0.6561   -0.9770    3.3728 H       1  UNL1        0.0315
     26 H          -1.0624   -0.9842    3.8362 H       1  UNL1        0.0315
     27 H           0.8051    1.4850    3.9668 H       1  UNL1        0.0381
     28 H           0.3360    0.4416    5.3455 H       1  UNL1        0.0381
     29 H           1.7876   -3.2471   -3.7948 H       1  UNL1        0.0279
     30 H           1.7248   -3.8615   -2.0999 H       1  UNL1        0.0279
     31 H           2.8415   -2.5076   -2.5642 H       1  UNL1        0.0279
     32 H           2.7538   -2.7946   -0.1659 H       1  UNL1        0.0660
     33 H           1.6831   -1.9526    1.0233 H       1  UNL1        0.0660
     34 H           3.4050   -1.4486    0.8333 H       1  UNL1        0.0660
     35 H          -2.4127    0.9763    1.1890 H       1  UNL1        0.0274
     36 H          -2.1027   -0.7545    0.7282 H       1  UNL1        0.0274
     37 H          -2.7061   -0.3403    2.3646 H       1  UNL1        0.0274
     38 H          -0.9483   -4.0721   -3.6398 H       1  UNL1        0.0749
     39 H          -0.3265   -2.9826   -4.9773 H       1  UNL1        0.0749
     40 H           1.0728    1.6731   -0.4970 H       1  UNL1        0.0358
     41 H          -0.6568    1.8864   -0.1854 H       1  UNL1        0.0358
     42 H          -3.2041    0.8547   -2.1242 H       1  UNL1        0.2922
     43 H          -3.0741    1.7172    5.6148 H       1  UNL1        0.2951
@<TRIPOS>BOND
     1     2     3    2
     2     3     4    1
     3     4     5    1
     4     5     6    1
     5     3     9    1
     6    10    11    1
     7     7    12    1
     8    11    12   ar
     9    12    13   ar
    10    13    14   ar
    11    14    15   ar
    12     1    16    1
    13    11    16   ar
    14    15    16   ar
    15     2    17    1
    16    14    17    1
    17     1    18    2
    18     1    19    1
    19    10    19    1
    20     8    20    1
    21    13    20    1
    22    15    21    1
    23     6    22    1
    24     6    23    2
    25     2    24    1
    26     4    25    1
    27     4    26    1
    28     5    27    1
    29     5    28    1
    30     7    29    1
    31     7    30    1
    32     7    31    1
    33     8    32    1
    34     8    33    1
    35     8    34    1
    36     9    35    1
    37     9    36    1
    38     9    37    1
    39    10    38    1
    40    10    39    1
    41    17    40    1
    42    17    41    1
    43    21    42    1
    44    22    43    1
