
     RDKit          3D

 29 30  0  0  0  0  0  0  0  0999 V2000
   15.5089   61.2519  160.3131 N   0  0  0  0  0  0  0  0  0  0  0  0
   16.8931   61.2422  160.0834 C   0  0  0  0  0  0  0  0  0  0  0  0
   17.7358   61.1802  161.1696 N   0  0  0  0  0  0  0  0  0  0  0  0
   17.2519   61.0236  162.3603 C   0  0  0  0  0  0  0  0  0  0  0  0
   15.8079   60.9261  162.6363 C   0  0  0  0  0  0  0  0  0  0  0  0
   15.0046   61.0518  161.5819 C   0  0  0  0  0  0  0  0  0  0  0  0
   17.3562   61.2869  158.9465 O   0  0  0  0  0  0  0  0  0  0  0  0
   18.1445   60.9574  163.3924 N   0  0  0  0  0  0  0  0  0  0  0  0
   14.6598   61.3397  159.1306 C   0  0  1  0  0  0  0  0  0  0  0  0
   14.1467   62.7174  158.6859 C   0  0  2  0  0  0  0  0  0  0  0  0
   13.1022   63.2601  159.4909 O   0  0  0  0  0  0  0  0  0  0  0  0
   13.6756   62.4212  157.2673 C   0  0  1  0  0  0  0  0  0  0  0  0
   14.5510   61.2358  156.8320 C   0  0  2  0  0  0  0  0  0  0  0  0
   15.3939   60.9040  157.9680 O   0  0  0  0  0  0  0  0  0  0  0  0
   12.2944   62.0374  157.2929 O   0  0  0  0  0  0  0  0  0  0  0  0
   15.4119   61.5482  155.6085 C   0  0  0  0  0  0  0  0  0  0  0  0
   14.8491   60.9082  154.4703 O   0  0  0  0  0  0  0  0  0  0  0  0
   15.2211   61.4211  153.0017 P   0  0  1  0  0  5  0  0  0  0  0  0
   15.2199   60.3829  151.9287 O   0  0  0  0  0  0  0  0  0  0  0  0
   14.0765   62.5029  152.6840 O   0  0  0  0  0  0  0  0  0  0  0  0
   16.5302   62.3059  153.0970 O   0  0  0  0  0  0  0  0  0  0  0  0
   18.0014   61.7531  153.2837 P   0  0  2  0  0  5  0  0  0  0  0  0
   18.4282   61.4993  154.6959 O   0  0  0  0  0  0  0  0  0  0  0  0
   18.9535   62.8320  152.5903 O   0  0  0  0  0  0  0  0  0  0  0  0
   18.1494   60.4740  152.3538 O   0  0  0  0  0  0  0  0  0  0  0  0
   19.5824   59.8276  152.1482 P   0  0  0  0  0  5  0  0  0  0  0  0
   20.7079   60.5044  152.8488 O   0  0  0  0  0  0  0  0  0  0  0  0
   19.3614   58.3115  152.5883 O   0  0  0  0  0  0  0  0  0  0  0  0
   19.7517   59.6939  150.5690 O   0  0  0  0  0  0  0  0  0  0  0  0
  1  2  4  0
  2  3  4  0
  3  4  4  0
  4  5  4  0
  1  6  4  0
  5  6  4  0
  2  7  2  0
  4  8  1  0
  9  1  1  1
  9 10  1  0
 10 11  1  1
 10 12  1  0
 12 13  1  0
  9 14  1  0
 13 14  1  0
 12 15  1  1
 13 16  1  6
 16 17  1  0
 18 17  1  0
 18 19  2  0
 18 20  1  6
 18 21  1  0
 22 21  1  0
 22 23  2  0
 22 24  1  6
 22 25  1  0
 25 26  1  0
 26 27  2  0
 26 28  1  0
 26 29  1  0
M  END
