6ZR8_QOZ_A_302
     RDKit          3D

 61 64  0  0  0  0  0  0  0  0999 V2000
    1.0127    1.1252    2.1766 C   0  0  0  0  0  0  0  0  0  0  0  0
    1.6662    1.7811    3.2238 C   0  0  0  0  0  0  0  0  0  0  0  0
    1.5487    1.3003    4.5356 C   0  0  0  0  0  0  0  0  0  0  0  0
    2.3395    2.1293    5.8690 S   0  0  2  0  0  6  0  0  0  0  0  0
    3.2011    3.2334    5.3245 O   0  0  0  0  0  0  0  0  0  0  0  0
    3.2083    1.1693    6.6305 O   0  0  0  0  0  0  0  0  0  0  0  0
    0.7883    0.1553    4.7889 C   0  0  0  0  0  0  0  0  0  0  0  0
    0.1307   -0.4985    3.7446 C   0  0  0  0  0  0  0  0  0  0  0  0
    0.2448   -0.0228    2.4232 C   0  0  0  0  0  0  0  0  0  0  0  0
   -0.4749   -0.6375    1.3366 N   0  0  0  0  0  0  0  0  0  0  0  0
   -1.8178   -1.1326    1.4385 C   0  0  0  0  0  0  0  0  0  0  0  0
   -2.2575   -1.5643    2.5397 O   0  0  0  0  0  0  0  0  0  0  0  0
   -2.7223   -1.1045    0.2455 C   0  0  0  0  0  0  0  0  0  0  0  0
   -2.5863    0.1872   -0.4645 N   0  0  0  0  0  0  0  0  0  0  0  0
   -1.2171    0.7588   -0.3749 C   0  0  0  0  0  0  0  0  0  0  0  0
   -0.3169    0.3729   -1.5613 C   0  0  0  0  0  0  0  0  0  0  0  0
   -3.0373    0.0983   -1.8652 C   0  0  0  0  0  0  0  0  0  0  0  0
   -2.0907   -0.7663   -2.7339 C   0  0  0  0  0  0  0  0  0  0  0  0
   -0.7493   -0.9247   -2.1180 N   0  0  0  0  0  0  0  0  0  0  0  0
    0.2572   -1.4698   -3.0713 C   0  0  1  0  0  0  0  0  0  0  0  0
   -0.0576   -1.0724   -4.5051 C   0  0  0  0  0  0  0  0  0  0  0  0
   -0.7114   -1.9590   -5.3850 C   0  0  0  0  0  0  0  0  0  0  0  0
   -1.0173   -1.5621   -6.6885 C   0  0  0  0  0  0  0  0  0  0  0  0
   -0.6934   -0.2748   -7.1235 C   0  0  0  0  0  0  0  0  0  0  0  0
   -0.0652    0.6203   -6.2540 C   0  0  0  0  0  0  0  0  0  0  0  0
    0.2496    0.2260   -4.9510 C   0  0  0  0  0  0  0  0  0  0  0  0
    1.6670   -0.9952   -2.7535 C   0  0  0  0  0  0  0  0  0  0  0  0
    2.0850    0.3059   -3.0858 C   0  0  0  0  0  0  0  0  0  0  0  0
    3.3763    0.7406   -2.7718 C   0  0  0  0  0  0  0  0  0  0  0  0
    4.2650   -0.1225   -2.1275 C   0  0  0  0  0  0  0  0  0  0  0  0
    3.8667   -1.4265   -1.8035 C   0  0  0  0  0  0  0  0  0  0  0  0
    2.5752   -1.8611   -2.1137 C   0  0  0  0  0  0  0  0  0  0  0  0
    1.1505    2.7928    6.9297 N   0  0  0  0  0  0  0  0  0  0  0  0
    1.0987    1.5143    1.1697 H   0  0  0  0  0  0  0  0  0  0  0  0
    2.2522    2.6638    3.0126 H   0  0  0  0  0  0  0  0  0  0  0  0
    0.6863   -0.2242    5.7999 H   0  0  0  0  0  0  0  0  0  0  0  0
   -0.4923   -1.3514    3.9825 H   0  0  0  0  0  0  0  0  0  0  0  0
   -0.0255   -0.6498    0.3933 H   0  0  0  0  0  0  0  0  0  0  0  0
   -3.7632   -1.2427    0.6097 H   0  0  0  0  0  0  0  0  0  0  0  0
   -2.4935   -1.9627   -0.4241 H   0  0  0  0  0  0  0  0  0  0  0  0
   -0.7163    0.4568    0.5639 H   0  0  0  0  0  0  0  0  0  0  0  0
   -1.2983    1.8638   -0.3334 H   0  0  0  0  0  0  0  0  0  0  0  0
    0.7330    0.3362   -1.2000 H   0  0  0  0  0  0  0  0  0  0  0  0
   -0.3664    1.1640   -2.3438 H   0  0  0  0  0  0  0  0  0  0  0  0
   -4.0738   -0.2976   -1.9148 H   0  0  0  0  0  0  0  0  0  0  0  0
   -3.0835    1.1250   -2.2892 H   0  0  0  0  0  0  0  0  0  0  0  0
   -2.0095   -0.3120   -3.7487 H   0  0  0  0  0  0  0  0  0  0  0  0
   -2.5614   -1.7670   -2.8439 H   0  0  0  0  0  0  0  0  0  0  0  0
    0.2287   -2.5831   -3.0088 H   0  0  0  0  0  0  0  0  0  0  0  0
   -0.9750   -2.9613   -5.0697 H   0  0  0  0  0  0  0  0  0  0  0  0
   -1.5064   -2.2534   -7.3622 H   0  0  0  0  0  0  0  0  0  0  0  0
   -0.9322    0.0279   -8.1336 H   0  0  0  0  0  0  0  0  0  0  0  0
    0.1792    1.6221   -6.5884 H   0  0  0  0  0  0  0  0  0  0  0  0
    0.7311    0.9332   -4.2877 H   0  0  0  0  0  0  0  0  0  0  0  0
    1.4034    0.9955   -3.5693 H   0  0  0  0  0  0  0  0  0  0  0  0
    3.6824    1.7519   -3.0220 H   0  0  0  0  0  0  0  0  0  0  0  0
    5.2606    0.2161   -1.8746 H   0  0  0  0  0  0  0  0  0  0  0  0
    4.5549   -2.0942   -1.3000 H   0  0  0  0  0  0  0  0  0  0  0  0
    2.2846   -2.8713   -1.8521 H   0  0  0  0  0  0  0  0  0  0  0  0
    0.5880    3.4661    6.3668 H   0  0  0  0  0  0  0  0  0  0  0  0
    0.5063    2.0135    7.1967 H   0  0  0  0  0  0  0  0  0  0  0  0
  1  2  4  0
  2  3  4  0
  3  4  1  0
  4  5  2  0
  4  6  2  0
  3  7  4  0
  7  8  4  0
  8  9  4  0
  1  9  4  0
  9 10  1  0
 10 11  1  0
 11 12  2  0
 11 13  1  0
 13 14  1  0
 14 15  1  0
 15 16  1  0
 14 17  1  0
 17 18  1  0
 16 19  1  0
 18 19  1  0
 19 20  1  0
 20 21  1  0
 21 22  4  0
 22 23  4  0
 23 24  4  0
 24 25  4  0
 21 26  4  0
 25 26  4  0
 20 27  1  0
 27 28  4  0
 28 29  4  0
 29 30  4  0
 30 31  4  0
 31 32  4  0
 27 32  4  0
  4 33  1  6
  1 34  1  0
  2 35  1  0
  7 36  1  0
  8 37  1  0
 10 38  1  0
 13 39  1  0
 13 40  1  0
 15 41  1  0
 15 42  1  0
 16 43  1  0
 16 44  1  0
 17 45  1  0
 17 46  1  0
 18 47  1  0
 18 48  1  0
 20 49  1  1
 22 50  1  0
 23 51  1  0
 24 52  1  0
 25 53  1  0
 26 54  1  0
 28 55  1  0
 29 56  1  0
 30 57  1  0
 31 58  1  0
 32 59  1  0
 33 60  1  0
 33 61  1  0
M  END
