7NGW_UAW_A_301
     RDKit          3D

 35 36  0  0  0  0  0  0  0  0999 V2000
  -10.0437  -26.1786    4.8708 C   0  0  2  0  0  0  0  0  0  0  0  0
  -11.5492  -27.6582    3.4669 C   0  0  0  0  0  0  0  0  0  0  0  0
  -13.9856  -28.1641    2.9759 C   0  0  0  0  0  0  0  0  0  0  0  0
  -15.2326  -27.5920    2.6795 C   0  0  0  0  0  0  0  0  0  0  0  0
  -13.7968  -29.5421    2.7610 C   0  0  0  0  0  0  0  0  0  0  0  0
  -14.8285  -30.3216    2.2288 C   0  0  0  0  0  0  0  0  0  0  0  0
  -16.0615  -29.7406    1.9173 C   0  0  0  0  0  0  0  0  0  0  0  0
  -16.2624  -28.3732    2.1465 C   0  0  0  0  0  0  0  0  0  0  0  0
   -9.9562  -26.0810    2.3360 C   0  0  2  0  0  0  0  0  0  0  0  0
   -9.0707  -24.8597    2.6231 C   0  0  2  0  0  0  0  0  0  0  0  0
  -10.5584  -26.6174    3.5662 N   0  0  0  0  0  0  0  0  0  0  0  0
  -12.9493  -27.3445    3.5438 N   0  0  0  0  0  0  0  0  0  0  0  0
  -10.0599  -24.6445    4.9773 C   0  0  1  0  0  0  0  0  0  0  0  0
   -8.9404  -22.6551    3.8519 C   0  0  1  0  0  0  0  0  0  0  0  0
   -9.7665  -23.9273    3.6314 C   0  0  1  0  0  0  0  0  0  0  0  0
  -11.1847  -28.8457    3.2454 O   0  0  0  0  0  0  0  0  0  0  0  0
  -17.0795  -30.5294    1.3864 O   0  0  0  0  0  0  0  0  0  0  0  0
   -8.9977  -26.5402    4.9766 H   0  0  0  0  0  0  0  0  0  0  0  0
  -10.6154  -26.6153    5.7158 H   0  0  0  0  0  0  0  0  0  0  0  0
  -15.4030  -26.5369    2.8536 H   0  0  0  0  0  0  0  0  0  0  0  0
  -12.8632  -30.0214    3.0241 H   0  0  0  0  0  0  0  0  0  0  0  0
  -14.6722  -31.3804    2.0657 H   0  0  0  0  0  0  0  0  0  0  0  0
  -17.2156  -27.9157    1.9144 H   0  0  0  0  0  0  0  0  0  0  0  0
   -9.3515  -26.8695    1.8383 H   0  0  0  0  0  0  0  0  0  0  0  0
  -10.7678  -25.7718    1.6410 H   0  0  0  0  0  0  0  0  0  0  0  0
   -8.8776  -24.3204    1.6699 H   0  0  0  0  0  0  0  0  0  0  0  0
   -8.0917  -25.1957    3.0310 H   0  0  0  0  0  0  0  0  0  0  0  0
  -13.2176  -26.4126    3.9331 H   0  0  0  0  0  0  0  0  0  0  0  0
  -11.0590  -24.3201    5.3427 H   0  0  0  0  0  0  0  0  0  0  0  0
   -9.3206  -24.3502    5.7549 H   0  0  0  0  0  0  0  0  0  0  0  0
   -7.8566  -22.8655    3.7247 H   0  0  0  0  0  0  0  0  0  0  0  0
   -9.2411  -21.8717    3.1237 H   0  0  0  0  0  0  0  0  0  0  0  0
   -9.1135  -22.2618    4.8764 H   0  0  0  0  0  0  0  0  0  0  0  0
  -10.7390  -23.6168    3.1857 H   0  0  0  0  0  0  0  0  0  0  0  0
  -17.9333  -30.1196    1.0260 H   0  0  0  0  0  0  0  0  0  0  0  0
  3  4  2  0
  3  5  1  0
  5  6  2  0
  6  7  1  0
  4  8  1  0
  7  8  2  0
  9 10  1  0
  2 11  1  0
  9 11  1  0
  1 11  1  0
  3 12  1  0
  2 12  1  0
  1 13  1  0
 10 15  1  0
 13 15  1  0
 14 15  1  0
  2 16  2  0
  7 17  1  0
  1 18  1  1
  1 19  1  0
  4 20  1  0
  5 21  1  0
  6 22  1  0
  8 23  1  0
  9 24  1  6
  9 25  1  0
 10 26  1  6
 10 27  1  0
 12 28  1  0
 13 29  1  1
 13 30  1  0
 14 31  1  1
 14 32  1  0
 14 33  1  0
 15 34  1  6
 17 35  1  0
M  END
