7CIJ_G0C_B_601
     RDKit          3D

 21 21  0  0  0  0  0  0  0  0999 V2000
   26.5955    5.1828   52.8586 C   0  0  0  0  0  0  0  0  0  0  0  0
   25.6311    6.1032   53.3328 C   0  0  0  0  0  0  0  0  0  0  0  0
   25.3666    6.2021   54.7014 C   0  0  0  0  0  0  0  0  0  0  0  0
   26.0266    5.4408   55.5906 N   0  0  0  0  0  0  0  0  0  0  0  0
   27.2488    4.3860   53.8437 C   0  0  0  0  0  0  0  0  0  0  0  0
   22.5226    5.5317   49.9340 O   0  0  0  0  0  0  0  0  0  0  0  0
   23.5591    6.5063   50.1815 P   0  0  2  0  0  0  0  0  0  0  0  0
   23.1718    7.9498   50.1498 O   0  0  0  0  0  0  0  0  0  0  0  0
   24.8395    6.2826   49.4949 O   0  0  0  0  0  0  0  0  0  0  0  0
   23.8859    6.1674   51.7421 O   0  0  0  0  0  0  0  0  0  0  0  0
   24.7928    7.0078   52.4236 C   0  0  0  0  0  0  0  0  0  0  0  0
   26.9733    4.5417   55.1948 C   0  0  0  0  0  0  0  0  0  0  0  0
   27.6188    3.7285   56.2889 C   0  0  0  0  0  0  0  0  0  0  0  0
   28.1973    3.4751   53.5064 O   0  0  0  0  0  0  0  0  0  0  0  0
   26.8627    5.0237   51.4859 C   0  0  0  0  0  0  0  0  0  0  0  0
   28.0945    4.8052   51.0840 N   0  0  0  0  0  0  0  0  0  0  0  0
   28.4746    4.5413   49.6916 C   0  0  0  0  0  0  0  0  0  0  0  0
   29.9221    4.5803   49.2256 C   0  0  0  0  0  0  0  0  0  0  0  0
   30.2585    3.7771   47.9998 C   0  0  0  0  0  0  0  0  0  0  0  0
   30.3984    5.0573   46.6784 S   0  0  0  0  0  0  0  0  0  0  0  0
   31.7384    6.0946   47.2394 C   0  0  0  0  0  0  0  0  0  0  0  0
  1  2  2  0
  2  3  1  0
  3  4  2  0
  1  5  1  0
  7  6  1  6
  7  8  1  0
  7  9  2  0
  7 10  1  0
  2 11  1  0
 10 11  1  0
  5 12  2  0
  4 12  1  0
 12 13  1  0
  5 14  1  0
  1 15  1  0
 15 16  2  0
 16 17  1  0
 17 18  1  0
 18 19  1  0
 19 20  1  0
 20 21  1  0
M  END
