8AUH_L9I_B_403
     RDKit          3D

 11 10  0  0  0  0  0  0  0  0999 V2000
  -16.3104   21.0909   -0.1857 N   0  0  0  0  0  0  0  0  0  0  0  0
  -16.7280   19.5666   -1.9497 C   0  0  0  0  0  0  0  0  0  0  0  0
  -17.3268   20.4669   -2.6296 O   0  0  0  0  0  0  0  0  0  0  0  0
  -15.4190   18.8780    0.0963 C   0  0  0  0  0  0  0  0  0  0  0  0
  -14.0871   18.1299    1.9260 C   0  0  0  0  0  0  0  0  0  0  0  0
  -13.2897   18.7565    3.0556 C   0  0  0  0  0  0  0  0  0  0  0  0
  -16.6466   18.2196   -2.5225 C   0  0  0  0  0  0  0  0  0  0  0  0
  -16.1535   19.8957   -0.6494 C   0  0  0  0  0  0  0  0  0  0  0  0
  -14.7172   19.2053    1.2399 O   0  0  0  0  0  0  0  0  0  0  0  0
  -15.7700   21.3905    1.0416 O   0  0  0  0  0  0  0  0  0  0  0  0
  -15.4124   17.6999   -0.2845 O   0  0  0  0  0  0  0  0  0  0  0  0
  2  3  2  0
  6  5  1  1
  7  2  1  1
  1  8  2  0
  4  8  1  0
  2  8  1  0
  4  9  1  0
  5  9  1  1
  1 10  1  0
  4 11  2  0
M  END
$$$$
