@<TRIPOS>MOLECULE
1XM6_5RM_A_1003
 38 39 0 0 0
SMALL
GASTEIGER

@<TRIPOS>ATOM
      1 O          50.7850    2.2010  -10.0540 O.2     1  UNL1       -0.2265
      2 C          49.7650    2.4050   -9.3980 C.2     1  UNL1        0.4013
      3 O          48.9710    1.2920   -8.9670 O.3     1  UNL1       -0.4377
      4 N          49.5030    3.4380   -8.5800 N.am    1  UNL1       -0.2770
      5 C          48.4580    3.1390   -7.6190 C.3     1  UNL1        0.0587
      6 C          47.9970    1.7310   -8.0280 C.3     1  UNL1        0.1527
      7 C          48.0490    0.7240   -6.8730 C.3     1  UNL1       -0.0190
      8 C          46.6100    1.7270   -8.6360 C.ar    1  UNL1        0.0008
      9 C          45.5100    2.1740   -7.8950 C.ar    1  UNL1       -0.0511
     10 C          44.2280    2.1600   -8.4410 C.ar    1  UNL1       -0.0159
     11 C          44.0260    1.6590   -9.7300 C.ar    1  UNL1        0.1615
     12 O          42.7850    1.6190  -10.3080 O.3     1  UNL1       -0.4915
     13 C          41.5840    2.1170   -9.7040 C.3     1  UNL1        0.0790
     14 C          45.1160    1.2070  -10.4870 C.ar    1  UNL1        0.1623
     15 C          46.3930    1.2410   -9.9260 C.ar    1  UNL1       -0.0093
     16 O          44.8880    0.7470  -11.7810 O.3     1  UNL1       -0.4883
     17 C          45.9050    0.1950  -12.6180 C.3     1  UNL1        0.0895
     18 C          45.3630    0.0630  -14.0400 C.3     1  UNL1       -0.0215
     19 C          45.1150    1.4450  -14.5960 C.3     1  UNL1       -0.0622
     20 H          49.9694    4.3037   -8.6275 H       1  UNL1        0.1522
     21 H          47.6552    3.8424   -7.6939 H       1  UNL1        0.0506
     22 H          48.7933    3.1925   -6.6043 H       1  UNL1        0.0506
     23 H          49.0285    0.7256   -6.4423 H       1  UNL1        0.0272
     24 H          47.8235   -0.2545   -7.2425 H       1  UNL1        0.0272
     25 H          47.3314    0.9982   -6.1282 H       1  UNL1        0.0272
     26 H          45.6501    2.5183   -6.9323 H       1  UNL1        0.0623
     27 H          43.4294    2.5188   -7.8947 H       1  UNL1        0.0655
     28 H          40.7596    1.9612  -10.3681 H       1  UNL1        0.0660
     29 H          41.6909    3.1634   -9.5076 H       1  UNL1        0.0660
     30 H          41.4050    1.5982   -8.7855 H       1  UNL1        0.0660
     31 H          47.1954    0.8990  -10.4776 H       1  UNL1        0.0659
     32 H          46.1871   -0.7696  -12.2508 H       1  UNL1        0.0696
     33 H          46.7615    0.8363  -12.6162 H       1  UNL1        0.0696
     34 H          44.4464   -0.4888  -14.0258 H       1  UNL1        0.0295
     35 H          46.0716   -0.4539  -14.6529 H       1  UNL1        0.0295
     36 H          44.4059    1.9559  -13.9787 H       1  UNL1        0.0231
     37 H          44.7295    1.3653  -15.5910 H       1  UNL1        0.0231
     38 H          46.0338    1.9931  -14.6123 H       1  UNL1        0.0231
@<TRIPOS>BOND
     1     1     2    2
     2     2     3    1
     3     2     4   am
     4     4     5    1
     5     3     6    1
     6     5     6    1
     7     6     7    1
     8     6     8    1
     9     8     9   ar
    10     9    10   ar
    11    10    11   ar
    12    11    12    1
    13    12    13    1
    14    11    14   ar
    15     8    15   ar
    16    14    15   ar
    17    14    16    1
    18    16    17    1
    19    17    18    1
    20    18    19    1
    21     4    20    1
    22     5    21    1
    23     5    22    1
    24     7    23    1
    25     7    24    1
    26     7    25    1
    27     9    26    1
    28    10    27    1
    29    13    28    1
    30    13    29    1
    31    13    30    1
    32    15    31    1
    33    17    32    1
    34    17    33    1
    35    18    34    1
    36    18    35    1
    37    19    36    1
    38    19    37    1
    39    19    38    1
