1XM6_5RM_A_1003
     RDKit          3D

 38 39  0  0  0  0  0  0  0  0999 V2000
   -1.5983   -0.0137    4.3913 O   0  0  0  0  0  0  0  0  0  0  0  0
   -0.8663    0.5357    3.5278 C   0  0  0  0  0  0  0  0  0  0  0  0
   -1.2809    0.8274    2.2505 O   0  0  0  0  0  0  0  0  0  0  0  0
    0.4684    0.9094    3.7623 N   0  0  0  0  0  0  0  0  0  0  0  0
    0.9902    1.4509    2.5178 C   0  0  0  0  0  0  0  0  0  0  0  0
   -0.2251    1.4608    1.5247 C   0  0  2  0  0  0  0  0  0  0  0  0
   -0.6613    2.8962    1.1957 C   0  0  0  0  0  0  0  0  0  0  0  0
    0.0878    0.7043    0.2366 C   0  0  0  0  0  0  0  0  0  0  0  0
    1.2222    1.0471   -0.5189 C   0  0  0  0  0  0  0  0  0  0  0  0
    1.5116    0.3849   -1.7117 C   0  0  0  0  0  0  0  0  0  0  0  0
    0.6660   -0.6339   -2.1841 C   0  0  0  0  0  0  0  0  0  0  0  0
    0.9279   -1.3257   -3.3775 O   0  0  0  0  0  0  0  0  0  0  0  0
    2.0501   -1.0846   -4.2202 C   0  0  0  0  0  0  0  0  0  0  0  0
   -0.4782   -0.9805   -1.4509 C   0  0  0  0  0  0  0  0  0  0  0  0
   -0.7691   -0.3014   -0.2507 C   0  0  0  0  0  0  0  0  0  0  0  0
   -1.3021   -2.0004   -1.9586 O   0  0  0  0  0  0  0  0  0  0  0  0
   -2.4139   -2.5924   -1.2839 C   0  0  0  0  0  0  0  0  0  0  0  0
   -1.9527   -3.5108   -0.1456 C   0  0  0  0  0  0  0  0  0  0  0  0
   -1.0890   -4.6603   -0.6597 C   0  0  0  0  0  0  0  0  0  0  0  0
    1.0082    0.7507    4.6418 H   0  0  0  0  0  0  0  0  0  0  0  0
    1.4000    2.4686    2.6968 H   0  0  0  0  0  0  0  0  0  0  0  0
    1.8138    0.7930    2.1649 H   0  0  0  0  0  0  0  0  0  0  0  0
   -1.5473    2.8821    0.5252 H   0  0  0  0  0  0  0  0  0  0  0  0
   -0.9369    3.4362    2.1269 H   0  0  0  0  0  0  0  0  0  0  0  0
    0.1580    3.4540    0.6941 H   0  0  0  0  0  0  0  0  0  0  0  0
    1.8878    1.8322   -0.1821 H   0  0  0  0  0  0  0  0  0  0  0  0
    2.3970    0.6749   -2.2607 H   0  0  0  0  0  0  0  0  0  0  0  0
    2.0288   -0.0395   -4.5949 H   0  0  0  0  0  0  0  0  0  0  0  0
    2.0060   -1.7739   -5.0882 H   0  0  0  0  0  0  0  0  0  0  0  0
    2.9927   -1.2732   -3.6642 H   0  0  0  0  0  0  0  0  0  0  0  0
   -1.6627   -0.5488    0.3009 H   0  0  0  0  0  0  0  0  0  0  0  0
   -3.1020   -1.8091   -0.9021 H   0  0  0  0  0  0  0  0  0  0  0  0
   -2.9902   -3.1929   -2.0194 H   0  0  0  0  0  0  0  0  0  0  0  0
   -1.3779   -2.9327    0.6078 H   0  0  0  0  0  0  0  0  0  0  0  0
   -2.8480   -3.9323    0.3601 H   0  0  0  0  0  0  0  0  0  0  0  0
   -1.6506   -5.2625   -1.4052 H   0  0  0  0  0  0  0  0  0  0  0  0
   -0.8060   -5.3192    0.1880 H   0  0  0  0  0  0  0  0  0  0  0  0
   -0.1605   -4.2689   -1.1272 H   0  0  0  0  0  0  0  0  0  0  0  0
  1  2  2  0
  2  3  1  0
  2  4  1  0
  4  5  1  0
  3  6  1  0
  5  6  1  0
  6  7  1  6
  6  8  1  0
  8  9  2  0
  9 10  1  0
 10 11  2  0
 11 12  1  0
 12 13  1  0
 11 14  1  0
  8 15  1  0
 14 15  2  0
 14 16  1  0
 16 17  1  0
 17 18  1  0
 18 19  1  0
  4 20  1  0
  5 21  1  0
  5 22  1  0
  7 23  1  0
  7 24  1  0
  7 25  1  0
  9 26  1  0
 10 27  1  0
 13 28  1  0
 13 29  1  0
 13 30  1  0
 15 31  1  0
 17 32  1  0
 17 33  1  0
 18 34  1  0
 18 35  1  0
 19 36  1  0
 19 37  1  0
 19 38  1  0
M  END
