8AIJ_M9I_BBB_203
     RDKit          3D

 36 37  0  0  0  0  0  0  0  0999 V2000
    1.5279   12.1836   17.0533 C   0  0  1  0  0  0  0  0  0  0  0  0
    2.7746   12.6174   16.2258 C   0  0  2  0  0  0  0  0  0  0  0  0
    2.9091   14.1551   16.1469 C   0  0  1  0  0  0  0  0  0  0  0  0
    1.5226   14.8211   16.2202 C   0  0  1  0  0  0  0  0  0  0  0  0
    0.7587   14.3731   17.5108 C   0  0  2  0  0  0  0  0  0  0  0  0
    0.8155   15.4255   18.6240 C   0  0  2  0  0  0  0  0  0  0  0  0
    2.7482   12.0719   14.9308 O   0  0  0  0  0  0  0  0  0  0  0  0
    3.7167   14.6066   17.2063 O   0  0  0  0  0  0  0  0  0  0  0  0
    1.6404   16.2207   16.1451 O   0  0  0  0  0  0  0  0  0  0  0  0
    1.2388   13.1455   18.0547 O   0  0  0  0  0  0  0  0  0  0  0  0
   -1.1852   11.1891   17.8402 O   0  0  0  0  0  0  0  0  0  0  0  0
   -0.9774   11.8773   16.8033 C   0  0  0  0  0  0  0  0  0  0  0  0
    0.3383   11.9132   16.2281 N   0  0  0  0  0  0  0  0  0  0  0  0
   -2.0984   12.6305   16.1934 C   0  0  0  0  0  0  0  0  0  0  0  0
   -3.4241   12.1979   16.3826 C   0  0  0  0  0  0  0  0  0  0  0  0
   -1.8641   13.8000   15.4451 C   0  0  0  0  0  0  0  0  0  0  0  0
   -2.9325   14.5063   14.8836 C   0  0  0  0  0  0  0  0  0  0  0  0
   -4.2428   14.0592   15.0671 C   0  0  0  0  0  0  0  0  0  0  0  0
   -4.4884   12.9076   15.8178 C   0  0  0  0  0  0  0  0  0  0  0  0
    1.8005   11.2354   17.5664 H   0  0  0  0  0  0  0  0  0  0  0  0
    3.6848   12.2315   16.7443 H   0  0  0  0  0  0  0  0  0  0  0  0
    3.3930   14.4221   15.1771 H   0  0  0  0  0  0  0  0  0  0  0  0
    0.9311   14.4731   15.3409 H   0  0  0  0  0  0  0  0  0  0  0  0
   -0.3183   14.2527   17.2547 H   0  0  0  0  0  0  0  0  0  0  0  0
    1.8615   15.5797   18.9647 H   0  0  0  0  0  0  0  0  0  0  0  0
    0.1881   15.1163   19.4863 H   0  0  0  0  0  0  0  0  0  0  0  0
    0.4359   16.3970   18.2417 H   0  0  0  0  0  0  0  0  0  0  0  0
    1.9436   11.4921   14.8813 H   0  0  0  0  0  0  0  0  0  0  0  0
    3.5237   15.5728   17.3280 H   0  0  0  0  0  0  0  0  0  0  0  0
    2.3984   16.4147   15.5337 H   0  0  0  0  0  0  0  0  0  0  0  0
    0.4400   11.7409   15.2038 H   0  0  0  0  0  0  0  0  0  0  0  0
   -3.6367   11.3054   16.9580 H   0  0  0  0  0  0  0  0  0  0  0  0
   -0.8622   14.1864   15.3120 H   0  0  0  0  0  0  0  0  0  0  0  0
   -2.7444   15.4056   14.3114 H   0  0  0  0  0  0  0  0  0  0  0  0
   -5.0679   14.6081   14.6322 H   0  0  0  0  0  0  0  0  0  0  0  0
   -5.5045   12.5641   15.9629 H   0  0  0  0  0  0  0  0  0  0  0  0
  1  2  1  0
  2  3  1  0
  3  4  1  0
  4  5  1  0
  5  6  1  0
  2  7  1  0
  3  8  1  0
  4  9  1  0
  1 10  1  0
  5 10  1  0
 11 12  2  0
  1 13  1  0
 12 13  1  0
 12 14  1  0
 14 15  2  0
 14 16  1  0
 16 17  2  0
 17 18  1  0
 18 19  2  0
 15 19  1  0
  1 20  1  1
  2 21  1  1
  3 22  1  6
  4 23  1  6
  5 24  1  6
  6 25  1  1
  6 26  1  0
  6 27  1  0
  7 28  1  0
  8 29  1  0
  9 30  1  0
 13 31  1  0
 15 32  1  0
 16 33  1  0
 17 34  1  0
 18 35  1  0
 19 36  1  0
M  END
