7FHA_ADX_A_1001
     RDKit          3D

 27 29  0  0  0  0  0  0  0  0999 V2000
   -4.9185   -8.4999   -3.8293 S   0  0  2  0  0  0  0  0  0  0  0  0
   -5.3850   -9.9266   -3.7708 O   0  0  0  0  0  0  0  0  0  0  0  0
   -4.2941   -8.3414   -5.2084 O   0  0  0  0  0  0  0  0  0  0  0  0
   -3.7021   -8.2385   -2.7277 O   0  0  0  0  0  0  0  0  0  0  0  0
   -6.8144   -7.2495   -2.2081 P   0  0  2  0  0  0  0  0  0  0  0  0
   -6.6021   -8.5756   -1.4770 O   0  0  0  0  0  0  0  0  0  0  0  0
   -8.4718   -7.0271   -2.3435 O   0  0  0  0  0  0  0  0  0  0  0  0
   -6.1569   -7.3901   -3.7563 O   0  0  0  0  0  0  0  0  0  0  0  0
   -6.0826   -5.9902   -1.3755 O   0  0  0  0  0  0  0  0  0  0  0  0
   -6.8121   -4.8045   -1.4590 C   0  0  0  0  0  0  0  0  0  0  0  0
   -6.0726   -3.8949   -2.3942 C   0  0  1  0  0  0  0  0  0  0  0  0
   -4.7126   -4.1700   -2.4937 O   0  0  0  0  0  0  0  0  0  0  0  0
   -6.6483   -4.0431   -3.7789 C   0  0  1  0  0  0  0  0  0  0  0  0
   -7.2521   -2.8485   -4.1454 O   0  0  0  0  0  0  0  0  0  0  0  0
   -5.4054   -4.2064   -4.6287 C   0  0  1  0  0  0  0  0  0  0  0  0
   -5.4957   -3.4916   -5.8191 O   0  0  0  0  0  0  0  0  0  0  0  0
   -4.3562   -3.6222   -3.7034 C   0  0  2  0  0  0  0  0  0  0  0  0
   -3.0089   -3.9564   -4.1026 N   0  0  0  0  0  0  0  0  0  0  0  0
   -2.5220   -5.2096   -4.0534 C   0  0  0  0  0  0  0  0  0  0  0  0
   -1.2671   -5.2286   -4.4751 N   0  0  0  0  0  0  0  0  0  0  0  0
   -0.9160   -3.9922   -4.8052 C   0  0  0  0  0  0  0  0  0  0  0  0
    0.2708   -3.4644   -5.2973 C   0  0  0  0  0  0  0  0  0  0  0  0
    1.3787   -4.3224   -5.5259 N   0  0  0  0  0  0  0  0  0  0  0  0
    0.2861   -2.1444   -5.5279 N   0  0  0  0  0  0  0  0  0  0  0  0
   -0.8029   -1.3838   -5.2891 C   0  0  0  0  0  0  0  0  0  0  0  0
   -1.9566   -1.8868   -4.8125 N   0  0  0  0  0  0  0  0  0  0  0  0
   -2.0165   -3.1955   -4.5687 C   0  0  0  0  0  0  0  0  0  0  0  0
  1  2  2  0
  1  3  2  0
  1  4  1  1
  5  6  2  0
  5  7  1  6
  1  8  1  0
  5  8  1  0
  5  9  1  0
  9 10  1  0
 11 10  1  1
 11 12  1  0
 11 13  1  0
 13 14  1  6
 13 15  1  0
 15 16  1  6
 12 17  1  0
 15 17  1  0
 17 18  1  6
 18 19  1  0
 19 20  2  0
 20 21  1  0
 21 22  2  0
 22 23  1  0
 22 24  1  0
 24 25  2  0
 25 26  1  0
 18 27  1  0
 21 27  1  0
 26 27  2  0
M  END
$$$$
