
     RDKit          3D

 26 28  0  0  0  0  0  0  0  0999 V2000
   58.1655   31.1011   31.5236 O   0  0  0  0  0  0  0  0  0  0  0  0
   58.1597   29.6945   31.7541 C   0  0  0  0  0  0  0  0  0  0  0  0
   58.9713   28.8903   30.7107 C   0  0  2  0  0  0  0  0  0  0  0  0
   60.3198   28.3907   31.2568 C   0  0  0  0  0  0  0  0  0  0  0  0
   61.4071   29.4574   31.2106 C   0  0  0  0  0  0  0  0  0  0  0  0
   59.1220   29.5884   29.4341 N   0  0  0  0  0  0  0  0  0  0  0  0
   59.0677   28.9863   28.2005 C   0  0  0  0  0  0  0  0  0  0  0  0
   58.5201   27.7670   28.0733 N   0  0  0  0  0  0  0  0  0  0  0  0
   58.5337   27.3268   26.8071 C   0  0  0  0  0  0  0  0  0  0  0  0
   58.0526   26.1395   26.3244 N   0  0  0  0  0  0  0  0  0  0  0  0
   57.4114   25.0944   27.1101 C   0  0  0  0  0  0  0  0  0  0  0  0
   56.7561   24.0363   26.2222 C   0  0  0  0  0  0  0  0  0  0  0  0
   58.3890   24.4634   28.1008 C   0  0  0  0  0  0  0  0  0  0  0  0
   58.3015   26.1157   24.9760 C   0  0  0  0  0  0  0  0  0  0  0  0
   59.0526   27.9771   25.7046 C   0  0  0  0  0  0  0  0  0  0  0  0
   58.9049   27.2117   24.5656 N   0  0  0  0  0  0  0  0  0  0  0  0
   59.6219   29.7100   27.2088 N   0  0  0  0  0  0  0  0  0  0  0  0
   59.6320   29.2358   25.9327 C   0  0  0  0  0  0  0  0  0  0  0  0
   60.1893   29.9796   24.8862 N   0  0  0  0  0  0  0  0  0  0  0  0
   59.9494   31.4111   24.9237 C   0  0  0  0  0  0  0  0  0  0  0  0
   61.1614   32.1531   25.4402 C   0  0  0  0  0  0  0  0  0  0  0  0
   62.3282   32.2373   24.6666 C   0  0  0  0  0  0  0  0  0  0  0  0
   63.4392   32.9412   25.1331 C   0  0  0  0  0  0  0  0  0  0  0  0
   63.3941   33.5717   26.3752 C   0  0  0  0  0  0  0  0  0  0  0  0
   62.2375   33.5030   27.1499 C   0  0  0  0  0  0  0  0  0  0  0  0
   61.1248   32.8005   26.6844 C   0  0  0  0  0  0  0  0  0  0  0  0
  1  2  1  0
  3  2  1  1
  3  4  1  0
  4  5  1  0
  3  6  1  0
  6  7  1  0
  7  8  4  0
  8  9  4  0
  9 10  4  0
 10 11  1  0
 11 12  1  0
 11 13  1  0
 10 14  4  0
  9 15  4  0
 14 16  4  0
 15 16  4  0
  7 17  4  0
 15 18  4  0
 17 18  4  0
 18 19  1  0
 19 20  1  0
 20 21  1  0
 21 22  4  0
 22 23  4  0
 23 24  4  0
 24 25  4  0
 21 26  4  0
 25 26  4  0
M  END
