7LZD_YHY_A_1805
     RDKit          3D

 56 59  0  0  0  0  0  0  0  0999 V2000
  -12.6951   31.9363   11.8175 C   0  0  0  0  0  0  0  0  0  0  0  0
  -12.2969   31.7578   10.3922 N   0  0  0  0  0  0  0  0  0  0  0  0
  -13.2249   30.8007    9.7288 C   0  0  0  0  0  0  0  0  0  0  0  0
  -10.8443   31.4253   10.2036 C   0  0  1  0  0  0  0  0  0  0  0  0
  -10.1837   32.3796    9.2024 C   0  0  0  0  0  0  0  0  0  0  0  0
   -8.6670   32.1963    9.1220 C   0  0  0  0  0  0  0  0  0  0  0  0
   -8.6146   31.1495   11.3640 C   0  0  0  0  0  0  0  0  0  0  0  0
   -7.9293   32.0255   10.3903 N   0  0  0  0  0  0  0  0  0  0  0  0
  -10.0769   31.5747   11.5235 C   0  0  0  0  0  0  0  0  0  0  0  0
   -6.5148   31.8703   10.2398 C   0  0  0  0  0  0  0  0  0  0  0  0
   -5.9022   30.6124   10.4619 C   0  0  0  0  0  0  0  0  0  0  0  0
   -4.5355   30.4029   10.2945 C   0  0  0  0  0  0  0  0  0  0  0  0
   -3.7366   31.4674    9.9070 C   0  0  0  0  0  0  0  0  0  0  0  0
   -4.3056   32.7099    9.7188 C   0  0  0  0  0  0  0  0  0  0  0  0
   -5.6621   32.9183    9.8688 C   0  0  0  0  0  0  0  0  0  0  0  0
   -4.0668   29.1037   10.5028 N   0  0  0  0  0  0  0  0  0  0  0  0
   -3.6864   28.6206   11.7014 C   0  0  0  0  0  0  0  0  0  0  0  0
   -3.7626   29.2835   12.7444 O   0  0  0  0  0  0  0  0  0  0  0  0
   -3.1511   27.2649   11.7798 C   0  0  0  0  0  0  0  0  0  0  0  0
   -3.4453   26.1731   11.0227 C   0  0  0  0  0  0  0  0  0  0  0  0
   -2.6628   25.1031   11.5121 C   0  0  0  0  0  0  0  0  0  0  0  0
   -1.9003   25.6071   12.5848 C   0  0  0  0  0  0  0  0  0  0  0  0
   -1.0214   24.7914   13.2963 C   0  0  0  0  0  0  0  0  0  0  0  0
   -0.2309   25.4126   14.4333 C   0  0  0  0  0  0  0  0  0  0  0  0
   -0.8773   23.4838   12.9312 C   0  0  0  0  0  0  0  0  0  0  0  0
   -1.6352   22.9751   11.8579 C   0  0  0  0  0  0  0  0  0  0  0  0
   -2.5151   23.7665   11.1454 C   0  0  0  0  0  0  0  0  0  0  0  0
   -3.2452   23.2617   10.0995 F   0  0  0  0  0  0  0  0  0  0  0  0
   -2.2285   26.9183   12.7410 N   0  0  0  0  0  4  0  0  0  0  0  0
  -13.7380   32.1697   11.8699 H   0  0  0  0  0  0  0  0  0  0  0  0
  -12.5045   31.0321   12.3569 H   0  0  0  0  0  0  0  0  0  0  0  0
  -12.1287   32.7351   12.2487 H   0  0  0  0  0  0  0  0  0  0  0  0
  -14.2359   31.1024    9.9071 H   0  0  0  0  0  0  0  0  0  0  0  0
  -13.0357   30.7923    8.6756 H   0  0  0  0  0  0  0  0  0  0  0  0
  -13.0699   29.8196   10.1267 H   0  0  0  0  0  0  0  0  0  0  0  0
  -10.8059   30.4172    9.8471 H   0  0  0  0  0  0  0  0  0  0  0  0
  -10.6016   32.2018    8.2335 H   0  0  0  0  0  0  0  0  0  0  0  0
  -10.3705   33.3785    9.5375 H   0  0  0  0  0  0  0  0  0  0  0  0
   -8.4810   31.3284    8.5244 H   0  0  0  0  0  0  0  0  0  0  0  0
   -8.3035   33.1184    8.7190 H   0  0  0  0  0  0  0  0  0  0  0  0
   -8.5768   30.1381   11.0167 H   0  0  0  0  0  0  0  0  0  0  0  0
   -8.1233   31.2301   12.3111 H   0  0  0  0  0  0  0  0  0  0  0  0
  -10.5398   30.9609   12.2678 H   0  0  0  0  0  0  0  0  0  0  0  0
  -10.1010   32.6038   11.8152 H   0  0  0  0  0  0  0  0  0  0  0  0
   -6.4922   29.8196   10.7596 H   0  0  0  0  0  0  0  0  0  0  0  0
   -2.7242   31.3314    9.7605 H   0  0  0  0  0  0  0  0  0  0  0  0
   -3.7011   33.5049    9.4589 H   0  0  0  0  0  0  0  0  0  0  0  0
   -6.0535   33.8591    9.7053 H   0  0  0  0  0  0  0  0  0  0  0  0
   -4.0109   28.5031    9.7246 H   0  0  0  0  0  0  0  0  0  0  0  0
   -4.1145   26.1340   10.2381 H   0  0  0  0  0  0  0  0  0  0  0  0
   -0.5062   26.4411   14.5389 H   0  0  0  0  0  0  0  0  0  0  0  0
   -0.4445   24.8910   15.3429 H   0  0  0  0  0  0  0  0  0  0  0  0
    0.8153   25.3434   14.2198 H   0  0  0  0  0  0  0  0  0  0  0  0
   -0.2180   22.8724   13.4376 H   0  0  0  0  0  0  0  0  0  0  0  0
   -1.5299   21.9823   11.5965 H   0  0  0  0  0  0  0  0  0  0  0  0
   -1.8653   27.5211   13.4295 H   0  0  0  0  0  0  0  0  0  0  0  0
  1  2  1  0
  2  3  1  0
  2  4  1  0
  4  5  1  0
  5  6  1  0
  7  8  1  0
  6  8  1  0
  7  9  1  0
  4  9  1  0
  8 10  1  0
 10 11  4  0
 11 12  4  0
 12 13  4  0
 13 14  4  0
 14 15  4  0
 10 15  4  0
 12 16  1  0
 16 17  1  0
 17 18  2  0
 17 19  1  0
 19 20  4  0
 20 21  4  0
 21 22  4  0
 22 23  4  0
 23 24  1  0
 23 25  4  0
 25 26  4  0
 21 27  4  0
 26 27  4  0
 27 28  1  0
 19 29  4  0
 22 29  4  0
  1 30  1  0
  1 31  1  0
  1 32  1  0
  3 33  1  0
  3 34  1  0
  3 35  1  0
  4 36  1  1
  5 37  1  0
  5 38  1  0
  6 39  1  0
  6 40  1  0
  7 41  1  0
  7 42  1  0
  9 43  1  0
  9 44  1  0
 11 45  1  0
 13 46  1  0
 14 47  1  0
 15 48  1  0
 16 49  1  0
 20 50  1  0
 24 51  1  0
 24 52  1  0
 24 53  1  0
 25 54  1  0
 26 55  1  0
 29 56  1  0
M  CHG  1  29   1
M  END
