7N7H_CTP_A_303
     RDKit          3D

 45 46  0  0  0  0  0  0  0  0999 V2000
    9.8248   47.7185  155.5592 N   0  0  0  0  0  0  0  0  0  0  0  0
   10.7807   48.5492  156.0921 C   0  0  0  0  0  0  0  0  0  0  0  0
   12.0884   48.3926  155.7576 N   0  0  0  0  0  0  0  0  0  0  0  0
   12.4878   47.4330  154.8860 C   0  0  0  0  0  0  0  0  0  0  0  0
   11.5383   46.5931  154.3085 C   0  0  0  0  0  0  0  0  0  0  0  0
   10.1999   46.7596  154.6559 C   0  0  0  0  0  0  0  0  0  0  0  0
   10.4636   49.4706  156.8919 O   0  0  0  0  0  0  0  0  0  0  0  0
   13.8714   47.2977  154.5615 N   0  0  0  0  0  0  0  0  0  0  0  0
    8.3943   47.8998  155.8870 C   0  0  1  0  0  0  0  0  0  0  0  0
    7.7451   48.9058  154.9280 C   0  0  2  0  0  0  0  0  0  0  0  0
    7.0115   49.8536  155.6644 O   0  0  0  0  0  0  0  0  0  0  0  0
    6.8329   48.0376  154.0920 C   0  0  1  0  0  0  0  0  0  0  0  0
    6.5684   46.8561  155.0144 C   0  0  2  0  0  0  0  0  0  0  0  0
    7.7138   46.6614  155.8098 O   0  0  0  0  0  0  0  0  0  0  0  0
    5.6350   48.6867  153.7499 O   0  0  0  0  0  0  0  0  0  0  0  0
    6.2523   45.5732  154.2397 C   0  0  2  0  0  0  0  0  0  0  0  0
    5.2234   45.8305  153.3145 O   0  0  0  0  0  0  0  0  0  0  0  0
    5.8381   45.6088  151.7390 P   0  0  2  0  0  5  0  0  0  0  0  0
    6.4737   44.2396  151.6442 O   0  0  0  0  0  0  0  0  0  0  0  0
    7.0038   46.7846  151.3733 O   0  0  0  0  0  0  0  0  0  0  0  0
    4.5518   45.6838  150.6283 O   0  0  0  0  0  0  0  0  0  0  0  0
    4.4114   47.3008  150.1025 P   0  0  1  0  0  5  0  0  0  0  0  0
    5.0340   48.2653  151.0899 O   0  0  0  0  0  0  0  0  0  0  0  0
    5.1920   47.4708  148.6110 O   0  0  0  0  0  0  0  0  0  0  0  0
    2.7721   47.7045  149.8868 O   0  0  0  0  0  0  0  0  0  0  0  0
    2.2587   48.5400  151.2789 P   0  0  2  0  0  5  0  0  0  0  0  0
    2.1271   47.5760  152.4377 O   0  0  0  0  0  0  0  0  0  0  0  0
    0.7442   49.2253  150.9629 O   0  0  0  0  0  0  0  0  0  0  0  0
    3.3450   49.7761  151.6847 O   0  0  0  0  0  0  0  0  0  0  0  0
   11.8277   45.8275  153.5996 H   0  0  0  0  0  0  0  0  0  0  0  0
    9.4639   46.1152  154.1925 H   0  0  0  0  0  0  0  0  0  0  0  0
   14.3868   46.4125  154.7662 H   0  0  0  0  0  0  0  0  0  0  0  0
   14.3866   48.0884  154.1150 H   0  0  0  0  0  0  0  0  0  0  0  0
    8.2884   48.2568  156.9361 H   0  0  0  0  0  0  0  0  0  0  0  0
    8.5057   49.4127  154.2867 H   0  0  0  0  0  0  0  0  0  0  0  0
    7.3255   50.7493  155.3731 H   0  0  0  0  0  0  0  0  0  0  0  0
    7.3738   47.7028  153.1748 H   0  0  0  0  0  0  0  0  0  0  0  0
    5.7107   47.0867  155.6878 H   0  0  0  0  0  0  0  0  0  0  0  0
    5.8927   49.5096  153.2575 H   0  0  0  0  0  0  0  0  0  0  0  0
    5.9336   44.7971  154.9721 H   0  0  0  0  0  0  0  0  0  0  0  0
    7.1784   45.2326  153.7236 H   0  0  0  0  0  0  0  0  0  0  0  0
    6.4867   47.5539  151.0242 H   0  0  0  0  0  0  0  0  0  0  0  0
    6.0165   46.9289  148.6963 H   0  0  0  0  0  0  0  0  0  0  0  0
    0.1204   48.4569  150.9239 H   0  0  0  0  0  0  0  0  0  0  0  0
    3.8286   49.4395  152.4808 H   0  0  0  0  0  0  0  0  0  0  0  0
  1  2  1  0
  2  3  1  0
  3  4  2  0
  4  5  1  0
  1  6  1  0
  5  6  2  0
  2  7  2  0
  4  8  1  0
  9  1  1  0
  9 10  1  0
 10 11  1  0
 10 12  1  0
 12 13  1  0
  9 14  1  0
 13 14  1  0
 12 15  1  0
 13 16  1  0
 16 17  1  0
 18 17  1  1
 18 19  2  0
 18 20  1  0
 18 21  1  0
 22 21  1  1
 22 23  2  0
 22 24  1  0
 22 25  1  0
 26 25  1  6
 26 27  2  0
 26 28  1  0
 26 29  1  0
  5 30  1  0
  6 31  1  0
  8 32  1  0
  8 33  1  0
  9 34  1  1
 10 35  1  6
 11 36  1  0
 12 37  1  6
 13 38  1  1
 15 39  1  0
 16 40  1  1
 16 41  1  0
 20 42  1  0
 24 43  1  0
 28 44  1  0
 29 45  1  0
M  END
