1XOZ_CIA_A_501
     RDKit          3D

 48 53  0  0  0  0  0  0  0  0999 V2000
   50.7462   35.5491    8.9374 C   0  0  0  0  0  0  0  0  0  0  0  0
   50.5280   34.1456    8.9821 C   0  0  0  0  0  0  0  0  0  0  0  0
   49.5876   33.5178    9.7828 C   0  0  0  0  0  0  0  0  0  0  0  0
   48.8307   34.3933   10.5805 C   0  0  0  0  0  0  0  0  0  0  0  0
   47.7521   34.1392   11.5464 C   0  0  0  0  0  0  0  0  0  0  0  0
   47.3999   35.3657   12.0074 C   0  0  0  0  0  0  0  0  0  0  0  0
   48.1293   36.3101   11.4416 N   0  0  0  0  0  4  0  0  0  0  0  0
   49.0270   35.7821   10.5534 C   0  0  0  0  0  0  0  0  0  0  0  0
   49.9682   36.4039    9.7506 C   0  0  0  0  0  0  0  0  0  0  0  0
   46.3249   35.5095   13.0104 C   0  0  2  0  0  0  0  0  0  0  0  0
   45.9247   34.2828   13.6787 N   0  0  0  0  0  0  0  0  0  0  0  0
   44.9871   34.4320   14.6389 C   0  0  0  0  0  0  0  0  0  0  0  0
   44.4925   35.4890   14.9379 O   0  0  0  0  0  0  0  0  0  0  0  0
   44.5240   33.2519   15.3699 C   0  0  0  0  0  0  0  0  0  0  0  0
   44.8599   31.9312   14.8384 N   0  0  0  0  0  0  0  0  0  0  0  0
   45.7921   31.7722   13.9077 C   0  0  0  0  0  0  0  0  0  0  0  0
   46.1287   30.6807   13.4205 O   0  0  0  0  0  0  0  0  0  0  0  0
   46.5083   32.9722   13.3734 C   0  0  1  0  0  0  0  0  0  0  0  0
   47.1270   32.8415   11.9754 C   0  0  0  0  0  0  0  0  0  0  0  0
   44.1761   30.7521   15.3377 C   0  0  0  0  0  0  0  0  0  0  0  0
   45.1655   36.2168   12.2260 C   0  0  0  0  0  0  0  0  0  0  0  0
   45.2628   36.4476   10.8257 C   0  0  0  0  0  0  0  0  0  0  0  0
   44.2748   37.0613   10.0874 C   0  0  0  0  0  0  0  0  0  0  0  0
   43.1494   37.4625   10.7708 C   0  0  0  0  0  0  0  0  0  0  0  0
   42.0512   38.0861   10.2545 O   0  0  0  0  0  0  0  0  0  0  0  0
   41.3720   38.5177   11.4287 C   0  0  0  0  0  0  0  0  0  0  0  0
   41.8160   37.7385   12.5783 O   0  0  0  0  0  0  0  0  0  0  0  0
   43.0147   37.2628   12.1084 C   0  0  0  0  0  0  0  0  0  0  0  0
   44.0101   36.6389   12.8635 C   0  0  0  0  0  0  0  0  0  0  0  0
   51.4690   35.9422    8.3144 H   0  0  0  0  0  0  0  0  0  0  0  0
   51.1123   33.5509    8.3741 H   0  0  0  0  0  0  0  0  0  0  0  0
   49.4541   32.4944    9.7928 H   0  0  0  0  0  0  0  0  0  0  0  0
   48.0391   37.2714   11.6340 H   0  0  0  0  0  0  0  0  0  0  0  0
   50.0940   37.4283    9.7462 H   0  0  0  0  0  0  0  0  0  0  0  0
   46.6600   36.0822   13.8498 H   0  0  0  0  0  0  0  0  0  0  0  0
   43.4571   33.3102   15.4221 H   0  0  0  0  0  0  0  0  0  0  0  0
   45.0421   33.3000   16.3049 H   0  0  0  0  0  0  0  0  0  0  0  0
   47.3722   32.9610   14.0046 H   0  0  0  0  0  0  0  0  0  0  0  0
   47.8776   32.0793   11.9939 H   0  0  0  0  0  0  0  0  0  0  0  0
   46.3548   32.5859   11.2803 H   0  0  0  0  0  0  0  0  0  0  0  0
   43.4592   31.0417   16.0772 H   0  0  0  0  0  0  0  0  0  0  0  0
   44.8888   30.0844   15.7747 H   0  0  0  0  0  0  0  0  0  0  0  0
   43.6761   30.2608   14.5293 H   0  0  0  0  0  0  0  0  0  0  0  0
   46.1182   36.1391   10.3374 H   0  0  0  0  0  0  0  0  0  0  0  0
   44.3737   37.2127    9.0716 H   0  0  0  0  0  0  0  0  0  0  0  0
   40.3182   38.3856   11.2971 H   0  0  0  0  0  0  0  0  0  0  0  0
   41.5906   39.5510   11.6003 H   0  0  0  0  0  0  0  0  0  0  0  0
   43.8872   36.4950   13.8778 H   0  0  0  0  0  0  0  0  0  0  0  0
  1  2  4  0
  2  3  4  0
  3  4  4  0
  4  5  4  0
  5  6  4  0
  6  7  4  0
  4  8  4  0
  7  8  4  0
  1  9  4  0
  8  9  4  0
  6 10  1  0
 10 11  1  0
 11 12  1  0
 12 13  2  0
 12 14  1  0
 14 15  1  0
 15 16  1  0
 16 17  2  0
 11 18  1  0
 16 18  1  0
  5 19  1  0
 18 19  1  0
 15 20  1  0
 10 21  1  0
 21 22  4  0
 22 23  4  0
 23 24  4  0
 24 25  1  0
 25 26  1  0
 26 27  1  0
 24 28  4  0
 27 28  1  0
 21 29  4  0
 28 29  4  0
  1 30  1  0
  2 31  1  0
  3 32  1  0
  7 33  1  0
  9 34  1  0
 10 35  1  1
 14 36  1  0
 14 37  1  0
 18 38  1  1
 19 39  1  0
 19 40  1  0
 20 41  1  0
 20 42  1  0
 20 43  1  0
 22 44  1  0
 23 45  1  0
 26 46  1  0
 26 47  1  0
 29 48  1  0
M  CHG  1   7   1
M  END
