@<TRIPOS>MOLECULE
1XOZ_CIA_A_501
 48 53 0 0 0
SMALL
GASTEIGER

@<TRIPOS>ATOM
      1 C          -3.4817   -0.6153    4.5899 C.ar    1  UNL1       -0.0598
      2 C          -3.8447    0.6335    4.0369 C.ar    1  UNL1       -0.0611
      3 C          -3.1090    1.1827    2.9707 C.ar    1  UNL1       -0.0523
      4 C          -2.0301    0.4477    2.4815 C.ar    1  UNL1        0.0032
      5 C          -1.1175    0.7173    1.4844 C.ar    1  UNL1       -0.0147
      6 C          -0.2283   -0.3306    1.4915 C.ar    1  UNL1        0.0456
      7 N          -0.5642   -1.2479    2.4299 N.ar    1  UNL1       -0.3560
      8 C          -1.6695   -0.7616    3.0243 C.ar    1  UNL1        0.0470
      9 C          -2.3767   -1.3256    4.0850 C.ar    1  UNL1       -0.0378
     10 C           0.9742   -0.4015    0.5985 C.3     1  UNL1        0.0925
     11 N           0.9678    0.6702   -0.4319 N.am    1  UNL1       -0.2758
     12 C           1.8318    0.5418   -1.5787 C.2     1  UNL1        0.2344
     13 O           3.0026    0.0932   -1.4501 O.2     1  UNL1       -0.2738
     14 C           1.3218    0.9384   -2.9409 C.3     1  UNL1        0.0910
     15 N          -0.1528    0.9854   -2.9574 N.am    1  UNL1       -0.2942
     16 C          -0.8635    1.4354   -1.7862 C.2     1  UNL1        0.2366
     17 O          -2.1162    1.5837   -1.8101 O.2     1  UNL1       -0.2735
     18 C          -0.0595    1.7312   -0.5494 C.3     1  UNL1        0.1074
     19 C          -0.8932    1.9753    0.7327 C.3     1  UNL1        0.0019
     20 C          -0.8904    0.6484   -4.1758 C.3     1  UNL1        0.0037
     21 C           1.0076   -1.7730   -0.0496 C.ar    1  UNL1       -0.0175
     22 C          -0.0097   -2.1608   -0.9639 C.ar    1  UNL1       -0.0527
     23 C           0.0184   -3.4286   -1.5708 C.ar    1  UNL1       -0.0158
     24 C           1.0660   -4.2822   -1.2420 C.ar    1  UNL1        0.1662
     25 O           1.3086   -5.5626   -1.7004 O.3     1  UNL1       -0.4526
     26 C           2.5085   -6.0374   -1.0739 C.3     1  UNL1        0.2332
     27 O           2.9411   -4.9601   -0.2312 O.3     1  UNL1       -0.4526
     28 C           2.0385   -3.9231   -0.3669 C.ar    1  UNL1        0.1666
     29 C           2.0498   -2.6783    0.2553 C.ar    1  UNL1       -0.0108
     30 H          -4.0527   -1.0251    5.4128 H       1  UNL1        0.0618
     31 H          -4.6920    1.1734    4.4389 H       1  UNL1        0.0618
     32 H          -3.3760    2.1417    2.5464 H       1  UNL1        0.0624
     33 H          -0.0580   -2.1316    2.6621 H       1  UNL1        0.1657
     34 H          -2.0821   -2.2754    4.5122 H       1  UNL1        0.0638
     35 H           1.8733   -0.2583    1.2364 H       1  UNL1        0.0616
     36 H           1.7207    1.9431   -3.1945 H       1  UNL1        0.0560
     37 H           1.6957    0.2080   -3.6907 H       1  UNL1        0.0560
     38 H           0.4650    2.6925   -0.7504 H       1  UNL1        0.0600
     39 H          -1.8610    2.4690    0.5031 H       1  UNL1        0.0337
     40 H          -0.3273    2.6614    1.3995 H       1  UNL1        0.0337
     41 H          -1.5637   -0.2120   -3.9775 H       1  UNL1        0.0429
     42 H          -0.2012    0.3749   -5.0025 H       1  UNL1        0.0429
     43 H          -1.4952    1.5207   -4.5023 H       1  UNL1        0.0429
     44 H          -0.8175   -1.4805   -1.2017 H       1  UNL1        0.0622
     45 H          -0.7500   -3.7312   -2.2697 H       1  UNL1        0.0655
     46 H           2.2908   -6.9382   -0.4626 H       1  UNL1        0.1166
     47 H           3.2802   -6.2570   -1.8412 H       1  UNL1        0.1166
     48 H           2.8401   -2.4215    0.9489 H       1  UNL1        0.0659
@<TRIPOS>BOND
     1     1     2   ar
     2     2     3   ar
     3     3     4   ar
     4     4     5   ar
     5     5     6   ar
     6     6     7   ar
     7     4     8   ar
     8     7     8   ar
     9     1     9   ar
    10     8     9   ar
    11     6    10    1
    12    10    11    1
    13    11    12   am
    14    12    13    2
    15    12    14    1
    16    14    15    1
    17    15    16   am
    18    16    17    2
    19    11    18    1
    20    16    18    1
    21     5    19    1
    22    18    19    1
    23    15    20    1
    24    10    21    1
    25    21    22   ar
    26    22    23   ar
    27    23    24   ar
    28    24    25    1
    29    25    26    1
    30    26    27    1
    31    24    28   ar
    32    27    28    1
    33    21    29   ar
    34    28    29   ar
    35     1    30    1
    36     2    31    1
    37     3    32    1
    38     7    33    1
    39     9    34    1
    40    10    35    1
    41    14    36    1
    42    14    37    1
    43    18    38    1
    44    19    39    1
    45    19    40    1
    46    20    41    1
    47    20    42    1
    48    20    43    1
    49    22    44    1
    50    23    45    1
    51    26    46    1
    52    26    47    1
    53    29    48    1
