1X8X_TYR_A_952
     RDKit          3D

 13 13  0  0  0  0  0  0  0  0999 V2000
   14.8851   11.2578   13.6750 N   0  0  0  0  0  0  0  0  0  0  0  0
   13.7933   11.9033   14.4244 C   0  0  2  0  0  0  0  0  0  0  0  0
   13.0207   10.8219   15.0869 C   0  0  0  0  0  0  0  0  0  0  0  0
   12.3883   10.9894   16.1686 O   0  0  0  0  0  0  0  0  0  0  0  0
   12.9762   12.6221   13.4125 C   0  0  0  0  0  0  0  0  0  0  0  0
   13.6194   13.6981   12.6766 C   0  0  0  0  0  0  0  0  0  0  0  0
   14.6924   14.3515   13.2474 C   0  0  0  0  0  0  0  0  0  0  0  0
   13.2153   14.1105   11.4239 C   0  0  0  0  0  0  0  0  0  0  0  0
   15.3598   15.3910   12.6044 C   0  0  0  0  0  0  0  0  0  0  0  0
   13.8642   15.1475   10.7574 C   0  0  0  0  0  0  0  0  0  0  0  0
   14.9377   15.7965   11.3356 C   0  0  0  0  0  0  0  0  0  0  0  0
   15.5990   16.8386   10.6797 O   0  0  0  0  0  0  0  0  0  0  0  0
   12.9421    9.5269   14.5474 O   0  0  0  0  0  0  0  0  0  0  0  0
  2  1  1  6
  2  3  1  0
  3  4  2  0
  2  5  1  0
  5  6  1  0
  6  7  2  0
  6  8  1  0
  7  9  1  0
  8 10  2  0
  9 11  2  0
 10 11  1  0
 11 12  1  0
  3 13  1  0
M  END
$$$$
