1X8X_TYR_A_952
     RDKit          3D

 13 13  0  0  0  0  0  0  0  0999 V2000
  -11.2502   34.2925   49.3395 N   0  0  0  0  0  0  0  0  0  0  0  0
  -10.5714   34.1686   48.0378 C   0  0  2  0  0  0  0  0  0  0  0  0
  -10.8912   35.3934   47.2613 C   0  0  0  0  0  0  0  0  0  0  0  0
  -11.7715   36.2269   47.6196 O   0  0  0  0  0  0  0  0  0  0  0  0
  -11.1357   32.9505   47.4003 C   0  0  0  0  0  0  0  0  0  0  0  0
  -10.6956   31.6635   47.9130 C   0  0  0  0  0  0  0  0  0  0  0  0
   -9.3703   31.4987   48.2598 C   0  0  0  0  0  0  0  0  0  0  0  0
  -11.5362   30.5820   48.0760 C   0  0  0  0  0  0  0  0  0  0  0  0
   -8.8742   30.2965   48.7578 C   0  0  0  0  0  0  0  0  0  0  0  0
  -11.0674   29.3675   48.5719 C   0  0  0  0  0  0  0  0  0  0  0  0
   -9.7392   29.2106   48.9168 C   0  0  0  0  0  0  0  0  0  0  0  0
   -9.2537   27.9985   49.4156 O   0  0  0  0  0  0  0  0  0  0  0  0
  -10.2275   35.7085   46.0637 O   0  0  0  0  0  0  0  0  0  0  0  0
  2  1  1  1
  2  3  1  0
  3  4  2  0
  2  5  1  0
  5  6  1  0
  6  7  2  0
  6  8  1  0
  7  9  1  0
  8 10  2  0
  9 11  2  0
 10 11  1  0
 11 12  1  0
  3 13  1  0
M  END
$$$$
