1X8X_TYR_A_952
     RDKit          3D

 13 13  0  0  0  0  0  0  0  0999 V2000
   -0.1270   23.8584   -2.7640 N   0  0  0  0  0  0  0  0  0  0  0  0
   -0.2187   25.1241   -3.5123 C   0  0  2  0  0  0  0  0  0  0  0  0
    0.8541   25.1020   -4.5390 C   0  0  0  0  0  0  0  0  0  0  0  0
    1.8296   24.2988   -4.4999 O   0  0  0  0  0  0  0  0  0  0  0  0
   -0.0017   26.2027   -2.5134 C   0  0  0  0  0  0  0  0  0  0  0  0
   -1.1451   26.6143   -1.7158 C   0  0  0  0  0  0  0  0  0  0  0  0
   -2.4132   26.2672   -2.1345 C   0  0  0  0  0  0  0  0  0  0  0  0
   -1.0361   27.3413   -0.5487 C   0  0  0  0  0  0  0  0  0  0  0  0
   -3.5564   26.6247   -1.4242 C   0  0  0  0  0  0  0  0  0  0  0  0
   -2.1624   27.7127    0.1822 C   0  0  0  0  0  0  0  0  0  0  0  0
   -3.4285   27.3613   -0.2437 C   0  0  0  0  0  0  0  0  0  0  0  0
   -4.5682   27.7263    0.4784 O   0  0  0  0  0  0  0  0  0  0  0  0
    0.8540   25.9833   -5.6332 O   0  0  0  0  0  0  0  0  0  0  0  0
  2  1  1  1
  2  3  1  0
  3  4  2  0
  2  5  1  0
  5  6  1  0
  6  7  2  0
  6  8  1  0
  7  9  1  0
  8 10  2  0
  9 11  2  0
 10 11  1  0
 11 12  1  0
  3 13  1  0
M  END
$$$$
