1X8X_TYR_A_952
     RDKit          3D

 13 13  0  0  0  0  0  0  0  0999 V2000
   -5.5626   32.2674   49.7008 N   0  0  0  0  0  0  0  0  0  0  0  0
   -6.1730   31.9899   51.0126 C   0  0  2  0  0  0  0  0  0  0  0  0
   -5.3186   32.6418   52.0374 C   0  0  0  0  0  0  0  0  0  0  0  0
   -4.2113   33.1882   51.7660 O   0  0  0  0  0  0  0  0  0  0  0  0
   -6.1720   30.5108   51.1558 C   0  0  0  0  0  0  0  0  0  0  0  0
   -7.2408   29.7755   50.5001 C   0  0  0  0  0  0  0  0  0  0  0  0
   -7.2956   28.4042   50.6432 C   0  0  0  0  0  0  0  0  0  0  0  0
   -8.2172   30.3757   49.7327 C   0  0  0  0  0  0  0  0  0  0  0  0
   -8.2886   27.6317   50.0460 C   0  0  0  0  0  0  0  0  0  0  0  0
   -9.2226   29.6279   49.1236 C   0  0  0  0  0  0  0  0  0  0  0  0
   -9.2705   28.2554   49.2717 C   0  0  0  0  0  0  0  0  0  0  0  0
  -10.2726   27.4914   48.6670 O   0  0  0  0  0  0  0  0  0  0  0  0
   -5.6905   32.6939   53.3913 O   0  0  0  0  0  0  0  0  0  0  0  0
  2  1  1  6
  2  3  1  0
  3  4  2  0
  2  5  1  0
  5  6  1  0
  6  7  2  0
  6  8  1  0
  7  9  1  0
  8 10  2  0
  9 11  2  0
 10 11  1  0
 11 12  1  0
  3 13  1  0
M  END
$$$$
