1X8X_TYR_A_952
     RDKit          3D

 13 13  0  0  0  0  0  0  0  0999 V2000
    5.1594   12.4522   30.0001 N   0  0  0  0  0  0  0  0  0  0  0  0
    6.2265   12.5316   28.9874 C   0  0  2  0  0  0  0  0  0  0  0  0
    5.9601   11.4647   27.9893 C   0  0  0  0  0  0  0  0  0  0  0  0
    5.2063   10.4766   28.2206 O   0  0  0  0  0  0  0  0  0  0  0  0
    7.4983   12.2952   29.7188 C   0  0  0  0  0  0  0  0  0  0  0  0
    7.8824   13.2725   30.7239 C   0  0  0  0  0  0  0  0  0  0  0  0
    7.7699   14.6157   30.4290 C   0  0  0  0  0  0  0  0  0  0  0  0
    8.3591   12.9320   31.9727 C   0  0  0  0  0  0  0  0  0  0  0  0
    8.1175   15.6103   31.3397 C   0  0  0  0  0  0  0  0  0  0  0  0
    8.7145   13.9057   32.9035 C   0  0  0  0  0  0  0  0  0  0  0  0
    8.5989   15.2484   32.6006 C   0  0  0  0  0  0  0  0  0  0  0  0
    8.9513   16.2370   33.5236 O   0  0  0  0  0  0  0  0  0  0  0  0
    6.5360   11.4853   26.7079 O   0  0  0  0  0  0  0  0  0  0  0  0
  2  1  1  1
  2  3  1  0
  3  4  2  0
  2  5  1  0
  5  6  1  0
  6  7  2  0
  6  8  1  0
  7  9  1  0
  8 10  2  0
  9 11  2  0
 10 11  1  0
 11 12  1  0
  3 13  1  0
M  END
$$$$
