1X8X_TYR_A_952
     RDKit          3D

 13 13  0  0  0  0  0  0  0  0999 V2000
    0.0147   16.2609   18.7150 N   0  0  0  0  0  0  0  0  0  0  0  0
   -1.4423   16.3296   18.9222 C   0  0  2  0  0  0  0  0  0  0  0  0
   -1.8847   14.9802   19.3565 C   0  0  0  0  0  0  0  0  0  0  0  0
   -2.9875   14.7699   19.9378 O   0  0  0  0  0  0  0  0  0  0  0  0
   -2.0223   16.7010   17.6053 C   0  0  0  0  0  0  0  0  0  0  0  0
   -1.5257   17.9128   16.9746 C   0  0  0  0  0  0  0  0  0  0  0  0
   -2.3213   19.0401   16.9714 C   0  0  0  0  0  0  0  0  0  0  0  0
   -0.2889   18.0041   16.3708 C   0  0  0  0  0  0  0  0  0  0  0  0
   -1.9150   20.2374   16.3877 C   0  0  0  0  0  0  0  0  0  0  0  0
    0.1436   19.1888   15.7791 C   0  0  0  0  0  0  0  0  0  0  0  0
   -0.6589   20.3130   15.7802 C   0  0  0  0  0  0  0  0  0  0  0  0
   -0.2393   21.5089   15.1907 O   0  0  0  0  0  0  0  0  0  0  0  0
   -1.0963   13.8362   19.1468 O   0  0  0  0  0  0  0  0  0  0  0  0
  2  1  1  6
  2  3  1  0
  3  4  2  0
  2  5  1  0
  5  6  1  0
  6  7  2  0
  6  8  1  0
  7  9  1  0
  8 10  2  0
  9 11  2  0
 10 11  1  0
 11 12  1  0
  3 13  1  0
M  END
$$$$
