7WJB_BGC_A_802
     RDKit          3D

 12 12  0  0  0  0  0  0  0  0999 V2000
   51.9672   27.4786   15.6706 C   0  0  2  0  0  0  0  0  0  0  0  0
   52.3785   26.0599   16.0363 C   0  0  2  0  0  0  0  0  0  0  0  0
   51.4499   25.0957   15.2932 C   0  0  1  0  0  0  0  0  0  0  0  0
   51.6176   25.3057   13.7883 C   0  0  1  0  0  0  0  0  0  0  0  0
   50.6695   24.4436   12.9507 C   0  0  0  0  0  0  0  0  0  0  0  0
   52.1260   27.6382   14.1630 C   0  0  2  0  0  0  0  0  0  0  0  0
   51.7776   28.9799   13.7955 O   0  0  0  0  0  0  0  0  0  0  0  0
   52.7124   28.4931   16.3409 O   0  0  0  0  0  0  0  0  0  0  0  0
   52.2913   25.8532   17.4313 O   0  0  0  0  0  0  0  0  0  0  0  0
   51.7000   23.7511   15.6825 O   0  0  0  0  0  0  0  0  0  0  0  0
   51.2820   26.6674   13.4894 O   0  0  0  0  0  0  0  0  0  0  0  0
   49.4358   25.1459   12.7910 O   0  0  0  0  0  0  0  0  0  0  0  0
  1  2  1  0
  2  3  1  0
  3  4  1  0
  4  5  1  6
  1  6  1  0
  6  7  1  6
  1  8  1  1
  2  9  1  1
  3 10  1  6
  4 11  1  0
  6 11  1  0
  5 12  1  0
M  END
