@<TRIPOS>MOLECULE
1IA1_TQ3_B_196
 31 33 0 0 0
SMALL
GASTEIGER

@<TRIPOS>ATOM
      1 C          -0.9225   -0.1539    1.7498 C.ar    1  UNL1        0.0789
      2 C           0.3237   -0.2573    1.0759 C.ar    1  UNL1        0.0537
      3 C           0.9935   -1.5090    1.1603 C.ar    1  UNL1        0.1301
      4 N           0.3725   -2.5611    1.7563 N.ar    1  UNL1       -0.1995
      5 C          -0.8517   -2.4444    2.3251 C.ar    1  UNL1        0.2148
      6 N          -1.4751   -1.2425    2.3425 N.ar    1  UNL1       -0.2145
      7 N           2.3511   -1.6886    0.7523 N.pl3   1  UNL1       -0.3425
      8 C          -1.6068    1.0636    1.7987 C.ar    1  UNL1       -0.0354
      9 C          -1.0873    2.1859    1.1610 C.ar    1  UNL1       -0.0587
     10 C           0.0926    2.0882    0.4276 C.ar    1  UNL1       -0.0472
     11 C           0.7890    0.8738    0.3419 C.ar    1  UNL1        0.0252
     12 N          -1.4641   -3.5753    2.9400 N.pl3   1  UNL1       -0.3274
     13 S           2.1422    0.8176   -0.8481 S.3     1  UNL1       -0.0887
     14 C           1.0625    0.3524   -2.2031 C.ar    1  UNL1        0.0128
     15 C           0.4549    1.3422   -2.9867 C.ar    1  UNL1       -0.0480
     16 C          -0.3932    0.9806   -4.0383 C.ar    1  UNL1       -0.0607
     17 C          -0.6324   -0.3697   -4.3120 C.ar    1  UNL1       -0.0617
     18 C          -0.0218   -1.3595   -3.5355 C.ar    1  UNL1       -0.0607
     19 C           0.8267   -1.0000   -2.4837 C.ar    1  UNL1       -0.0480
     20 H           2.7160   -2.6539    0.5933 H       1  UNL1        0.1437
     21 H           3.0567   -0.9362    0.9063 H       1  UNL1        0.1437
     22 H          -2.5475    1.1402    2.3302 H       1  UNL1        0.0639
     23 H          -1.6212    3.1266    1.2029 H       1  UNL1        0.0619
     24 H           0.4460    2.9565   -0.1147 H       1  UNL1        0.0629
     25 H          -2.4011   -3.4883    3.3925 H       1  UNL1        0.1452
     26 H          -0.9820   -4.5015    2.9422 H       1  UNL1        0.1452
     27 H           0.6349    2.3893   -2.7792 H       1  UNL1        0.0629
     28 H          -0.8648    1.7464   -4.6405 H       1  UNL1        0.0618
     29 H          -1.2891   -0.6488   -5.1258 H       1  UNL1        0.0618
     30 H          -0.2056   -2.4045   -3.7490 H       1  UNL1        0.0618
     31 H           1.2967   -1.7720   -1.8889 H       1  UNL1        0.0629
@<TRIPOS>BOND
     1     1     2   ar
     2     2     3   ar
     3     3     4   ar
     4     4     5   ar
     5     1     6   ar
     6     5     6   ar
     7     3     7    1
     8     1     8   ar
     9     8     9   ar
    10     9    10   ar
    11     2    11   ar
    12    10    11   ar
    13     5    12    1
    14    11    13    1
    15    13    14    1
    16    14    15   ar
    17    15    16   ar
    18    16    17   ar
    19    17    18   ar
    20    14    19   ar
    21    18    19   ar
    22     7    20    1
    23     7    21    1
    24     8    22    1
    25     9    23    1
    26    10    24    1
    27    12    25    1
    28    12    26    1
    29    15    27    1
    30    16    28    1
    31    17    29    1
    32    18    30    1
    33    19    31    1
