
     RDKit          3D

 33 37  0  0  0  0  0  0  0  0999 V2000
   22.9505   11.0107   30.9191 N   0  0  0  0  0  0  0  0  0  0  0  0
   23.2182   12.3695   30.9604 C   0  0  0  0  0  0  0  0  0  0  0  0
   22.3808   12.9734   31.7813 N   0  0  0  0  0  0  0  0  0  0  0  0
   21.5212   12.0150   32.2386 C   0  0  0  0  0  0  0  0  0  0  0  0
   21.8581   10.7641   31.7476 C   0  0  0  0  0  0  0  0  0  0  0  0
   23.6839    9.9928   30.1805 C   0  0  0  0  0  0  0  0  0  0  0  0
   25.1506    9.8899   30.6028 C   0  0  0  0  0  0  0  0  0  0  0  0
   25.2778    9.5917   32.0881 C   0  0  0  0  0  0  0  0  0  0  0  0
   24.2723   13.1343   30.2021 C   0  0  0  0  0  0  0  0  0  0  0  0
   24.2542   14.6360   30.4993 C   0  0  0  0  0  0  0  0  0  0  0  0
   25.3696   15.3513   29.7369 C   0  0  0  0  0  0  0  0  0  0  0  0
   25.2873   15.0718   28.2956 N   0  0  0  0  0  0  0  0  0  0  0  0
   25.4284   13.6339   28.0265 C   0  0  0  0  0  0  0  0  0  0  0  0
   24.3064   12.8443   28.7014 C   0  0  0  0  0  0  0  0  0  0  0  0
   26.3158   15.8240   27.5751 C   0  0  0  0  0  0  0  0  0  0  0  0
   20.4349   12.3430   33.1432 C   0  0  0  0  0  0  0  0  0  0  0  0
   21.2963    9.4469   32.0315 C   0  0  0  0  0  0  0  0  0  0  0  0
   20.4093   11.7645   34.4181 C   0  0  0  0  0  0  0  0  0  0  0  0
   19.3728   12.0574   35.3093 C   0  0  0  0  0  0  0  0  0  0  0  0
   18.3611   12.9478   34.9352 C   0  0  0  0  0  0  0  0  0  0  0  0
   18.3945   13.5455   33.6720 C   0  0  0  0  0  0  0  0  0  0  0  0
   19.4291   13.2479   32.7809 C   0  0  0  0  0  0  0  0  0  0  0  0
   19.3937   11.2776   36.8511 Cl  0  0  0  0  0  0  0  0  0  0  0  0
   17.0469   13.3522   35.9803 Cl  0  0  0  0  0  0  0  0  0  0  0  0
   19.9482    9.2657   32.2396 C   0  0  0  0  0  0  0  0  0  0  0  0
   19.5614    7.9737   32.4773 C   0  0  0  0  0  0  0  0  0  0  0  0
   20.4203    6.9416   32.5180 N   0  0  0  0  0  0  0  0  0  0  0  0
   21.7185    7.2146   32.3189 C   0  0  0  0  0  0  0  0  0  0  0  0
   22.1906    8.4421   32.0639 N   0  0  0  0  0  0  0  0  0  0  0  0
   22.6741    6.1953   32.3729 N   0  0  0  0  0  0  0  0  0  0  0  0
   23.7357    6.1508   31.3750 C   0  0  0  0  0  0  0  0  0  0  0  0
   23.5788    5.3708   30.1014 C   0  0  0  0  0  0  0  0  0  0  0  0
   24.5170    4.8838   31.1659 C   0  0  0  0  0  0  0  0  0  0  0  0
  1  2  4  0
  2  3  4  0
  3  4  4  0
  1  5  4  0
  4  5  4  0
  1  6  1  0
  6  7  1  0
  7  8  1  0
  2  9  1  0
  9 10  1  0
 10 11  1  0
 11 12  1  0
 12 13  1  0
  9 14  1  0
 13 14  1  0
 12 15  1  0
  4 16  1  0
  5 17  1  0
 16 18  4  0
 18 19  4  0
 19 20  4  0
 20 21  4  0
 16 22  4  0
 21 22  4  0
 19 23  1  0
 20 24  1  0
 17 25  4  0
 25 26  4  0
 26 27  4  0
 27 28  4  0
 17 29  4  0
 28 29  4  0
 28 30  1  0
 30 31  1  0
 31 32  1  0
 31 33  1  0
 32 33  1  0
M  END
