7AN5_RDH_A_301
     RDKit          3D

 15 15  0  0  0  0  0  0  0  0999 V2000
   10.2096    2.1515   23.2951 C   0  0  0  0  0  0  0  0  0  0  0  0
   10.2091    3.4507   23.0406 C   0  0  0  0  0  0  0  0  0  0  0  0
   10.9825    3.7065   25.2735 C   0  0  0  0  0  0  0  0  0  0  0  0
    9.9634    3.3239   26.1462 C   0  0  0  0  0  0  0  0  0  0  0  0
   10.2304    2.7421   27.3623 C   0  0  0  0  0  0  0  0  0  0  0  0
   11.5571    2.5497   27.6888 C   0  0  0  0  0  0  0  0  0  0  0  0
   12.5984    2.9153   26.8507 C   0  0  0  0  0  0  0  0  0  0  0  0
   13.9942    2.6929   27.2366 C   0  0  0  0  0  0  0  0  0  0  0  0
   12.3054    3.5009   25.6283 C   0  0  0  0  0  0  0  0  0  0  0  0
    9.7877    4.0140   21.7613 C   0  0  0  0  0  0  0  0  0  0  0  0
   10.6310    4.2958   24.0468 O   0  0  0  0  0  0  0  0  0  0  0  0
   14.2525    2.0045   28.4138 O   0  0  0  0  0  0  0  0  0  0  0  0
   14.9528    3.1063   26.5344 O   0  0  0  0  0  0  0  0  0  0  0  0
    9.7782    5.2677   21.5576 O   0  0  0  0  0  0  0  0  0  0  0  0
    9.3800    3.1990   20.7153 O   0  0  0  0  0  0  0  0  0  0  0  0
  1  2  2  0
  3  4  2  0
  4  5  1  0
  5  6  2  0
  6  7  1  0
  7  8  1  0
  3  9  1  0
  7  9  2  0
  2 10  1  0
  2 11  1  0
  3 11  1  0
  8 12  1  0
  8 13  2  0
 10 14  2  0
 10 15  1  0
M  END
$$$$
