2BM2_PM2_B_3211
     RDKit          3D

 30 33  0  0  0  0  0  0  0  0999 V2000
   34.8807  131.2229   92.0703 C   0  0  0  0  0  0  0  0  0  0  0  0
   33.6299  130.8790   91.5956 C   0  0  0  0  0  0  0  0  0  0  0  0
   34.9296  132.2854   92.9531 C   0  0  0  0  0  0  0  0  0  0  0  0
   32.5106  131.5760   91.9984 C   0  0  0  0  0  0  0  0  0  0  0  0
   33.8130  132.9849   93.3584 C   0  0  0  0  0  0  0  0  0  0  0  0
   32.5801  132.6351   92.8812 C   0  0  0  0  0  0  0  0  0  0  0  0
   31.1395  131.2163   91.4982 C   0  0  0  0  0  0  0  0  0  0  0  0
   30.4980  132.5017   91.1887 N   0  0  0  0  0  0  0  0  0  0  0  0
   37.3181  130.8512   92.5045 C   0  0  0  0  0  0  0  0  0  0  0  0
   38.3401  129.7212   92.3533 C   0  0  0  0  0  0  0  0  0  0  0  0
   38.5601  127.4093   93.3538 C   0  0  0  0  0  0  0  0  0  0  0  0
   39.7809  127.6212   93.6759 O   0  0  0  0  0  0  0  0  0  0  0  0
   36.1254  130.5104   91.6527 C   0  0  1  0  0  0  0  0  0  0  0  0
   37.7612  128.4698   92.8399 N   0  0  0  0  0  0  0  0  0  0  0  0
   36.3194  128.3030   92.8033 C   0  0  0  0  0  0  0  0  0  0  0  0
   35.8163  129.0373   91.5888 C   0  0  0  0  0  0  0  0  0  0  0  0
   38.0764  126.0644   93.5445 C   0  0  0  0  0  0  0  0  0  0  0  0
   36.7241  125.9092   93.8232 C   0  0  0  0  0  0  0  0  0  0  0  0
   38.8526  124.9305   93.4711 C   0  0  0  0  0  0  0  0  0  0  0  0
   36.1586  124.6724   94.0227 C   0  0  0  0  0  0  0  0  0  0  0  0
   38.2967  123.7230   93.6665 N   0  0  0  0  0  0  0  0  0  0  0  0
   34.7103  124.6089   94.3184 C   0  0  0  0  0  0  0  0  0  0  0  0
   36.9827  123.5778   93.9368 C   0  0  0  0  0  0  0  0  0  0  0  0
   34.0222  123.6093   93.3854 C   0  0  0  0  0  0  0  0  0  0  0  0
   32.5752  123.5978   93.6545 C   0  0  0  0  0  0  0  0  0  0  0  0
   31.6888  124.5481   93.1936 C   0  0  0  0  0  0  0  0  0  0  0  0
   32.0607  122.5662   94.4241 C   0  0  0  0  0  0  0  0  0  0  0  0
   30.3367  124.4640   93.4952 C   0  0  0  0  0  0  0  0  0  0  0  0
   30.7222  122.4699   94.7312 C   0  0  0  0  0  0  0  0  0  0  0  0
   29.8451  123.4276   94.2638 C   0  0  0  0  0  0  0  0  0  0  0  0
  1  2  2  0
  1  3  1  0
  2  4  1  0
  3  5  2  0
  4  6  2  0
  5  6  1  0
  4  7  1  0
  7  8  1  0
  9 10  1  0
 11 12  2  0
 13  1  1  1
  9 13  1  0
 10 14  1  0
 11 14  1  0
 14 15  1  0
 13 16  1  0
 15 16  1  0
 11 17  1  0
 17 18  2  0
 17 19  1  0
 18 20  1  0
 19 21  2  0
 20 22  1  0
 20 23  2  0
 21 23  1  0
 22 24  1  0
 24 25  1  0
 25 26  2  0
 25 27  1  0
 26 28  1  0
 27 29  2  0
 28 30  2  0
 29 30  1  0
M  END
$$$$
