2BM2_PM2_B_3211
     RDKit          3D

 30 33  0  0  0  0  0  0  0  0999 V2000
   30.9798   63.7874   94.4529 C   0  0  0  0  0  0  0  0  0  0  0  0
   31.9934   64.7188   94.5680 C   0  0  0  0  0  0  0  0  0  0  0  0
   29.7126   64.2874   94.2183 C   0  0  0  0  0  0  0  0  0  0  0  0
   31.7248   66.0660   94.4508 C   0  0  0  0  0  0  0  0  0  0  0  0
   29.4398   65.6334   94.1005 C   0  0  0  0  0  0  0  0  0  0  0  0
   30.4517   66.5460   94.2167 C   0  0  0  0  0  0  0  0  0  0  0  0
   32.8127   67.0965   94.5680 C   0  0  0  0  0  0  0  0  0  0  0  0
   32.1345   68.3879   94.3895 N   0  0  0  0  0  0  0  0  0  0  0  0
   29.9551   61.5360   94.8391 C   0  0  0  0  0  0  0  0  0  0  0  0
   30.2164   60.0834   94.4318 C   0  0  0  0  0  0  0  0  0  0  0  0
   30.2718   58.8653   92.2165 C   0  0  0  0  0  0  0  0  0  0  0  0
   31.0020   58.6076   91.1970 O   0  0  0  0  0  0  0  0  0  0  0  0
   31.2156   62.3185   94.5878 C   0  0  1  0  0  0  0  0  0  0  0  0
   30.5260   60.0237   93.0041 N   0  0  0  0  0  0  0  0  0  0  0  0
   31.1092   61.1890   92.3637 C   0  0  0  0  0  0  0  0  0  0  0  0
   31.9926   61.8615   93.3808 C   0  0  0  0  0  0  0  0  0  0  0  0
   29.2127   57.9270   92.4937 C   0  0  0  0  0  0  0  0  0  0  0  0
   27.9099   58.3556   92.2709 C   0  0  0  0  0  0  0  0  0  0  0  0
   29.3977   56.6457   92.9603 C   0  0  0  0  0  0  0  0  0  0  0  0
   26.8259   57.5427   92.5023 C   0  0  0  0  0  0  0  0  0  0  0  0
   28.3360   55.8537   93.1853 N   0  0  0  0  0  0  0  0  0  0  0  0
   25.4768   58.0903   92.2393 C   0  0  0  0  0  0  0  0  0  0  0  0
   27.0727   56.2749   92.9672 C   0  0  0  0  0  0  0  0  0  0  0  0
   25.0105   58.9416   93.4230 C   0  0  0  0  0  0  0  0  0  0  0  0
   23.6529   59.4474   93.1631 C   0  0  0  0  0  0  0  0  0  0  0  0
   23.3729   60.6493   92.5482 C   0  0  0  0  0  0  0  0  0  0  0  0
   22.5771   58.6697   93.5621 C   0  0  0  0  0  0  0  0  0  0  0  0
   22.0613   61.0536   92.3424 C   0  0  0  0  0  0  0  0  0  0  0  0
   21.2711   59.0577   93.3645 C   0  0  0  0  0  0  0  0  0  0  0  0
   21.0042   60.2633   92.7478 C   0  0  0  0  0  0  0  0  0  0  0  0
  1  2  2  0
  1  3  1  0
  2  4  1  0
  3  5  2  0
  4  6  2  0
  5  6  1  0
  4  7  1  0
  7  8  1  0
  9 10  1  0
 11 12  2  0
 13  1  1  6
  9 13  1  0
 10 14  1  0
 11 14  1  0
 14 15  1  0
 13 16  1  0
 15 16  1  0
 11 17  1  0
 17 18  2  0
 17 19  1  0
 18 20  1  0
 19 21  2  0
 20 22  1  0
 20 23  2  0
 21 23  1  0
 22 24  1  0
 24 25  1  0
 25 26  2  0
 25 27  1  0
 26 28  1  0
 27 29  2  0
 28 30  2  0
 29 30  1  0
M  END
$$$$
