2BM2_PM2_B_3211
     RDKit          3D

 30 33  0  0  0  0  0  0  0  0999 V2000
   33.4040   73.6485   87.0031 C   0  0  0  0  0  0  0  0  0  0  0  0
   32.3584   73.6571   86.1005 C   0  0  0  0  0  0  0  0  0  0  0  0
   34.3996   72.7165   86.7779 C   0  0  0  0  0  0  0  0  0  0  0  0
   32.3370   72.7723   85.0433 C   0  0  0  0  0  0  0  0  0  0  0  0
   34.3821   71.8302   85.7222 C   0  0  0  0  0  0  0  0  0  0  0  0
   33.3413   71.8481   84.8353 C   0  0  0  0  0  0  0  0  0  0  0  0
   31.2118   72.7670   84.0467 C   0  0  0  0  0  0  0  0  0  0  0  0
   31.8445   72.4447   82.7601 N   0  0  0  0  0  0  0  0  0  0  0  0
   32.1123   75.0500   88.6265 C   0  0  0  0  0  0  0  0  0  0  0  0
   32.2415   75.5171   90.0788 C   0  0  0  0  0  0  0  0  0  0  0  0
   32.3257   74.3214   92.3053 C   0  0  0  0  0  0  0  0  0  0  0  0
   31.4934   75.1494   92.8158 O   0  0  0  0  0  0  0  0  0  0  0  0
   33.4663   74.5748   88.1734 C   0  0  1  0  0  0  0  0  0  0  0  0
   32.6471   74.3922   90.9202 N   0  0  0  0  0  0  0  0  0  0  0  0
   33.4004   73.3047   90.3219 C   0  0  0  0  0  0  0  0  0  0  0  0
   34.2751   73.9035   89.2526 C   0  0  0  0  0  0  0  0  0  0  0  0
   32.8905   73.3493   93.2082 C   0  0  0  0  0  0  0  0  0  0  0  0
   32.4382   72.0404   93.0964 C   0  0  0  0  0  0  0  0  0  0  0  0
   33.8392   73.6227   94.1668 C   0  0  0  0  0  0  0  0  0  0  0  0
   32.9093   71.0350   93.9067 C   0  0  0  0  0  0  0  0  0  0  0  0
   34.2977   72.6377   94.9571 N   0  0  0  0  0  0  0  0  0  0  0  0
   32.3635   69.6732   93.7149 C   0  0  0  0  0  0  0  0  0  0  0  0
   33.8551   71.3680   94.8444 C   0  0  0  0  0  0  0  0  0  0  0  0
   30.9321   69.7469   93.1778 C   0  0  0  0  0  0  0  0  0  0  0  0
   30.4450   68.3897   92.8822 C   0  0  0  0  0  0  0  0  0  0  0  0
   30.2835   67.8786   91.6118 C   0  0  0  0  0  0  0  0  0  0  0  0
   30.1228   67.5635   93.9474 C   0  0  0  0  0  0  0  0  0  0  0  0
   29.8159   66.5861   91.4201 C   0  0  0  0  0  0  0  0  0  0  0  0
   29.6580   66.2794   93.7725 C   0  0  0  0  0  0  0  0  0  0  0  0
   29.5008   65.7796   92.4956 C   0  0  0  0  0  0  0  0  0  0  0  0
  1  2  2  0
  1  3  1  0
  2  4  1  0
  3  5  2  0
  4  6  2  0
  5  6  1  0
  4  7  1  0
  7  8  1  0
  9 10  1  0
 11 12  2  0
 13  1  1  6
  9 13  1  0
 10 14  1  0
 11 14  1  0
 14 15  1  0
 13 16  1  0
 15 16  1  0
 11 17  1  0
 17 18  2  0
 17 19  1  0
 18 20  1  0
 19 21  2  0
 20 22  1  0
 20 23  2  0
 21 23  1  0
 22 24  1  0
 24 25  1  0
 25 26  2  0
 25 27  1  0
 26 28  1  0
 27 29  2  0
 28 30  2  0
 29 30  1  0
M  END
$$$$
