2BM2_PM2_B_3211
     RDKit          3D

 30 33  0  0  0  0  0  0  0  0999 V2000
   21.2143   96.4386   86.1632 C   0  0  0  0  0  0  0  0  0  0  0  0
   20.7210   95.4543   86.9975 C   0  0  0  0  0  0  0  0  0  0  0  0
   21.0623   96.2237   84.8062 C   0  0  0  0  0  0  0  0  0  0  0  0
   20.1157   94.3308   86.4757 C   0  0  0  0  0  0  0  0  0  0  0  0
   20.4577   95.1020   84.2804 C   0  0  0  0  0  0  0  0  0  0  0  0
   19.9736   94.1342   85.1166 C   0  0  0  0  0  0  0  0  0  0  0  0
   19.5680   93.2496   87.3647 C   0  0  0  0  0  0  0  0  0  0  0  0
   19.6544   93.7961   88.7261 N   0  0  0  0  0  0  0  0  0  0  0  0
   21.8877   98.8034   85.6923 C   0  0  0  0  0  0  0  0  0  0  0  0
   22.0992  100.1023   86.4750 C   0  0  0  0  0  0  0  0  0  0  0  0
   20.5867  101.5824   87.8591 C   0  0  0  0  0  0  0  0  0  0  0  0
   20.9273  102.6275   87.2027 O   0  0  0  0  0  0  0  0  0  0  0  0
   21.8924   97.6661   86.6777 C   0  0  1  0  0  0  0  0  0  0  0  0
   20.9943  100.2932   87.4135 N   0  0  0  0  0  0  0  0  0  0  0  0
   20.2829   99.1272   87.9058 C   0  0  0  0  0  0  0  0  0  0  0  0
   21.2830   98.0067   88.0126 C   0  0  0  0  0  0  0  0  0  0  0  0
   19.7891  101.8048   89.0396 C   0  0  0  0  0  0  0  0  0  0  0  0
   18.9939  102.9439   89.0636 C   0  0  0  0  0  0  0  0  0  0  0  0
   19.7589  100.9756   90.1374 C   0  0  0  0  0  0  0  0  0  0  0  0
   18.1951  103.2523   90.1388 C   0  0  0  0  0  0  0  0  0  0  0  0
   18.9768  101.2799   91.1867 N   0  0  0  0  0  0  0  0  0  0  0  0
   17.3871  104.4900   90.0732 C   0  0  0  0  0  0  0  0  0  0  0  0
   18.2063  102.3875   91.2049 C   0  0  0  0  0  0  0  0  0  0  0  0
   16.6879  104.7380   91.4121 C   0  0  0  0  0  0  0  0  0  0  0  0
   15.8382  105.9356   91.3112 C   0  0  0  0  0  0  0  0  0  0  0  0
   16.1869  107.0843   90.6329 C   0  0  0  0  0  0  0  0  0  0  0  0
   14.6028  105.9165   91.9395 C   0  0  0  0  0  0  0  0  0  0  0  0
   15.3262  108.1720   90.5881 C   0  0  0  0  0  0  0  0  0  0  0  0
   13.7388  106.9877   91.9035 C   0  0  0  0  0  0  0  0  0  0  0  0
   14.0997  108.1317   91.2211 C   0  0  0  0  0  0  0  0  0  0  0  0
  1  2  2  0
  1  3  1  0
  2  4  1  0
  3  5  2  0
  4  6  2  0
  5  6  1  0
  4  7  1  0
  7  8  1  0
  9 10  1  0
 11 12  2  0
 13  1  1  6
  9 13  1  0
 10 14  1  0
 11 14  1  0
 14 15  1  0
 13 16  1  0
 15 16  1  0
 11 17  1  0
 17 18  2  0
 17 19  1  0
 18 20  1  0
 19 21  2  0
 20 22  1  0
 20 23  2  0
 21 23  1  0
 22 24  1  0
 24 25  1  0
 25 26  2  0
 25 27  1  0
 26 28  1  0
 27 29  2  0
 28 30  2  0
 29 30  1  0
M  END
$$$$
