2BM2_PM2_B_3211
     RDKit          3D

 30 33  0  0  0  0  0  0  0  0999 V2000
   28.5221  111.9105   82.8835 C   0  0  0  0  0  0  0  0  0  0  0  0
   29.1543  113.0341   83.3793 C   0  0  0  0  0  0  0  0  0  0  0  0
   28.1640  111.9483   81.5488 C   0  0  0  0  0  0  0  0  0  0  0  0
   29.4007  114.1180   82.5636 C   0  0  0  0  0  0  0  0  0  0  0  0
   28.4086  113.0298   80.7299 C   0  0  0  0  0  0  0  0  0  0  0  0
   29.0350  114.1367   81.2325 C   0  0  0  0  0  0  0  0  0  0  0  0
   30.0911  115.3489   83.0807 C   0  0  0  0  0  0  0  0  0  0  0  0
   30.7690  114.9166   84.3108 N   0  0  0  0  0  0  0  0  0  0  0  0
   27.9922  109.4640   82.9275 C   0  0  0  0  0  0  0  0  0  0  0  0
   28.2249  108.2673   83.8537 C   0  0  0  0  0  0  0  0  0  0  0  0
   30.2910  107.0872   84.7097 C   0  0  0  0  0  0  0  0  0  0  0  0
   31.3137  107.1513   85.4772 O   0  0  0  0  0  0  0  0  0  0  0  0
   28.2178  110.7174   83.7292 C   0  0  1  0  0  0  0  0  0  0  0  0
   29.6085  108.2763   84.3263 N   0  0  0  0  0  0  0  0  0  0  0  0
   30.3152  109.5423   84.4032 C   0  0  0  0  0  0  0  0  0  0  0  0
   29.3033  110.5964   84.7668 C   0  0  0  0  0  0  0  0  0  0  0  0
   29.9000  105.7674   84.2803 C   0  0  0  0  0  0  0  0  0  0  0  0
   28.6256  105.6249   83.7456 C   0  0  0  0  0  0  0  0  0  0  0  0
   30.6928  104.6456   84.3616 C   0  0  0  0  0  0  0  0  0  0  0  0
   28.1514  104.4121   83.3057 C   0  0  0  0  0  0  0  0  0  0  0  0
   30.2263  103.4616   83.9306 N   0  0  0  0  0  0  0  0  0  0  0  0
   26.7788  104.3595   82.7556 C   0  0  0  0  0  0  0  0  0  0  0  0
   28.9877  103.3287   83.4120 C   0  0  0  0  0  0  0  0  0  0  0  0
   26.6615  103.2282   81.7313 C   0  0  0  0  0  0  0  0  0  0  0  0
   25.2958  103.1977   81.1833 C   0  0  0  0  0  0  0  0  0  0  0  0
   24.8813  102.3615   80.1683 C   0  0  0  0  0  0  0  0  0  0  0  0
   24.3569  104.0667   81.7167 C   0  0  0  0  0  0  0  0  0  0  0  0
   23.5726  102.3978   79.7076 C   0  0  0  0  0  0  0  0  0  0  0  0
   23.0556  104.1138   81.2699 C   0  0  0  0  0  0  0  0  0  0  0  0
   22.6532  103.2715   80.2533 C   0  0  0  0  0  0  0  0  0  0  0  0
  1  2  2  0
  1  3  1  0
  2  4  1  0
  3  5  2  0
  4  6  2  0
  5  6  1  0
  4  7  1  0
  7  8  1  0
  9 10  1  0
 11 12  2  0
 13  1  1  6
  9 13  1  0
 10 14  1  0
 11 14  1  0
 14 15  1  0
 13 16  1  0
 15 16  1  0
 11 17  1  0
 17 18  2  0
 17 19  1  0
 18 20  1  0
 19 21  2  0
 20 22  1  0
 20 23  2  0
 21 23  1  0
 22 24  1  0
 24 25  1  0
 25 26  2  0
 25 27  1  0
 26 28  1  0
 27 29  2  0
 28 30  2  0
 29 30  1  0
M  END
$$$$
