7C3U_AZG_B_202
     RDKit          3D

 11 12  0  0  0  0  0  0  0  0999 V2000
   28.0677   36.1041   37.8487 C   0  0  0  0  0  0  0  0  0  0  0  0
   27.8954   35.2882   36.7387 N   0  0  0  0  0  0  0  0  0  0  0  0
   28.6777   34.2451   36.6000 C   0  0  0  0  0  0  0  0  0  0  0  0
   28.4709   33.4325   35.5338 N   0  0  0  0  0  0  0  0  0  0  0  0
   29.6521   33.9104   37.4925 N   0  0  0  0  0  0  0  0  0  0  0  0
   29.9070   34.6581   38.5578 C   0  0  0  0  0  0  0  0  0  0  0  0
   30.8923   34.3044   39.3767 O   0  0  0  0  0  0  0  0  0  0  0  0
   29.1174   35.8403   38.8105 C   0  0  0  0  0  0  0  0  0  0  0  0
   29.0229   36.7663   39.7237 N   0  0  0  0  0  0  0  0  0  0  0  0
   28.0493   37.6764   39.4201 N   0  0  0  0  0  0  0  0  0  0  0  0
   27.4513   37.2293   38.2090 N   0  0  0  0  0  0  0  0  0  0  0  0
  1  2  2  0
  2  3  1  0
  3  4  1  0
  3  5  2  0
  5  6  1  0
  6  7  1  0
  1  8  1  0
  6  8  2  0
  8  9  1  0
  9 10  1  0
  1 11  1  0
 10 11  2  0
M  END
