7N7H_CTP_A_303
     RDKit          3D

 29 30  0  0  0  0  0  0  0  0999 V2000
   30.2639   46.8703  152.2268 N   0  0  0  0  0  0  0  0  0  0  0  0
   30.1003   47.5183  151.0584 C   0  0  0  0  0  0  0  0  0  0  0  0
   30.9843   48.4465  150.6338 N   0  0  0  0  0  0  0  0  0  0  0  0
   32.0852   48.7932  151.3357 C   0  0  0  0  0  0  0  0  0  0  0  0
   32.2752   48.1395  152.5420 C   0  0  0  0  0  0  0  0  0  0  0  0
   31.3538   47.1960  152.9482 C   0  0  0  0  0  0  0  0  0  0  0  0
   29.0958   47.2759  150.3058 O   0  0  0  0  0  0  0  0  0  0  0  0
   32.9870   49.7779  150.8449 N   0  0  0  0  0  0  0  0  0  0  0  0
   29.2877   45.9020  152.6095 C   0  0  1  0  0  0  0  0  0  0  0  0
   29.6083   44.4854  152.3270 C   0  0  2  0  0  0  0  0  0  0  0  0
   28.4590   43.7648  151.9270 O   0  0  0  0  0  0  0  0  0  0  0  0
   29.8588   43.9950  153.7606 C   0  0  1  0  0  0  0  0  0  0  0  0
   28.6462   44.7001  154.3554 C   0  0  2  0  0  0  0  0  0  0  0  0
   28.9151   46.0072  153.9494 O   0  0  0  0  0  0  0  0  0  0  0  0
   29.7883   42.6311  153.8774 O   0  0  0  0  0  0  0  0  0  0  0  0
   28.5501   44.5434  155.8251 C   0  0  0  0  0  0  0  0  0  0  0  0
   27.3455   43.9432  156.1276 O   0  0  0  0  0  0  0  0  0  0  0  0
   27.3588   43.0054  157.5100 P   0  0  2  0  0  0  0  0  0  0  0  0
   28.6860   42.3900  157.8340 O   0  0  0  0  0  0  0  0  0  0  0  0
   26.2350   41.7662  157.4040 O   0  0  0  0  0  0  0  0  0  0  0  0
   26.9953   44.0553  158.8115 O   0  0  0  0  0  0  0  0  0  0  0  0
   28.3036   44.1114  159.8924 P   0  0  1  0  0  0  0  0  0  0  0  0
   28.0981   45.1968  160.9239 O   0  0  0  0  0  0  0  0  0  0  0  0
   28.4868   42.6459  160.7100 O   0  0  0  0  0  0  0  0  0  0  0  0
   29.6692   44.4898  158.9723 O   0  0  0  0  0  0  0  0  0  0  0  0
   30.2664   46.0048  159.4490 P   0  0  2  0  0  0  0  0  0  0  0  0
   30.6740   45.9530  160.9048 O   0  0  0  0  0  0  0  0  0  0  0  0
   29.0961   47.1962  159.2249 O   0  0  0  0  0  0  0  0  0  0  0  0
   31.6200   46.3186  158.4911 O   0  0  0  0  0  0  0  0  0  0  0  0
  1  2  1  0
  2  3  1  0
  3  4  2  0
  4  5  1  0
  1  6  1  0
  5  6  2  0
  2  7  2  0
  4  8  1  0
  9  1  1  1
  9 10  1  0
 10 11  1  1
 10 12  1  0
 12 13  1  0
  9 14  1  0
 13 14  1  0
 12 15  1  6
 13 16  1  1
 16 17  1  0
 17 18  1  0
 18 19  2  0
 18 20  1  6
 18 21  1  0
 21 22  1  0
 22 23  2  0
 22 24  1  1
 22 25  1  0
 25 26  1  0
 26 27  2  0
 26 28  1  1
 26 29  1  0
M  END
$$$$
