7MOI_HPS_A_501
     RDKit          3D

 18 18  0  0  0  0  0  0  0  0999 V2000
   10.8124   -3.1756   -5.9769 C   0  0  0  0  0  0  0  0  0  0  0  0
   11.2981   -3.0876   -7.2834 C   0  0  0  0  0  0  0  0  0  0  0  0
   12.4024   -2.2797   -7.5640 C   0  0  0  0  0  0  0  0  0  0  0  0
   13.0239   -1.5580   -6.5396 C   0  0  0  0  0  0  0  0  0  0  0  0
   12.5396   -1.6418   -5.2177 C   0  0  0  0  0  0  0  0  0  0  0  0
   11.4308   -2.4558   -4.9500 C   0  0  0  0  0  0  0  0  0  0  0  0
   13.1185   -0.9439   -4.1474 O   0  0  0  0  0  0  0  0  0  0  0  0
   12.3505   -0.6623   -2.6318 P   0  0  2  0  0  5  0  0  0  0  0  0
   13.0805   -1.6168   -1.4397 O   0  0  0  0  0  0  0  0  0  0  0  0
   10.7064   -1.0478   -2.7430 O   0  0  0  0  0  0  0  0  0  0  0  0
   12.4985    0.7962   -2.2641 O   0  0  0  0  0  0  0  0  0  0  0  0
    9.9566   -3.8016   -5.7593 H   0  0  0  0  0  0  0  0  0  0  0  0
   10.8189   -3.6450   -8.0780 H   0  0  0  0  0  0  0  0  0  0  0  0
   12.7778   -2.2121   -8.5770 H   0  0  0  0  0  0  0  0  0  0  0  0
   13.8754   -0.9424   -6.7900 H   0  0  0  0  0  0  0  0  0  0  0  0
   11.0472   -2.5307   -3.9403 H   0  0  0  0  0  0  0  0  0  0  0  0
   12.5221   -1.4839   -0.6327 H   0  0  0  0  0  0  0  0  0  0  0  0
   10.3902   -0.5723   -3.5525 H   0  0  0  0  0  0  0  0  0  0  0  0
  1  2  4  0
  2  3  4  0
  3  4  4  0
  4  5  4  0
  1  6  4  0
  5  6  4  0
  5  7  1  0
  8  7  1  1
  8  9  1  0
  8 10  1  0
  8 11  2  0
  1 12  1  0
  2 13  1  0
  3 14  1  0
  4 15  1  0
  6 16  1  0
  9 17  1  0
 10 18  1  0
M  END
