1N2J_PAF_A_1001
     RDKit          3D

 10  9  0  0  0  0  0  0  0  0999 V2000
   33.3833   33.3385   44.7145 O   0  0  0  0  0  0  0  0  0  0  0  0
   33.3151   34.3611   45.6557 C   0  0  0  0  0  0  0  0  0  0  0  0
   33.2191   35.5312   45.2027 O   0  0  0  0  0  0  0  0  0  0  0  0
   33.3595   34.0021   47.0720 C   0  0  2  0  0  0  0  0  0  0  0  0
   33.9889   32.7398   47.1410 O   0  0  0  0  0  0  0  0  0  0  0  0
   32.0428   33.8561   47.7409 C   0  0  1  0  0  0  0  0  0  0  0  0
   31.1054   34.9962   47.5763 C   0  0  0  0  0  0  0  0  0  0  0  0
   31.3606   32.6587   47.1018 C   0  0  0  0  0  0  0  0  0  0  0  0
   32.2039   33.4580   49.2154 C   0  0  0  0  0  0  0  0  0  0  0  0
   33.0384   34.3630   49.8707 O   0  0  0  0  0  0  0  0  0  0  0  0
  1  2  1  0
  2  3  2  0
  2  4  1  0
  4  5  1  6
  4  6  1  0
  6  7  1  1
  8  6  1  1
  6  9  1  0
  9 10  1  1
M  CHG  1   1  -1
M  END
$$$$
