1Q41_IXM_A_451
     RDKit          3D

 32 35  0  0  0  0  0  0  0  0999 V2000
   39.4046    2.1389   34.1495 C   0  0  0  0  0  0  0  0  0  0  0  0
   38.5825    3.3520   34.1793 C   0  0  0  0  0  0  0  0  0  0  0  0
   40.2926    2.2178   35.2026 C   0  0  0  0  0  0  0  0  0  0  0  0
   40.1379    3.4176   35.9518 N   0  0  0  0  0  0  0  0  0  0  0  0
   41.2273    1.2116   35.4442 C   0  0  0  0  0  0  0  0  0  0  0  0
   41.2454    0.0993   34.5871 C   0  0  0  0  0  0  0  0  0  0  0  0
   40.3416    0.0162   33.5092 C   0  0  0  0  0  0  0  0  0  0  0  0
   39.4101    1.0431   33.2800 C   0  0  0  0  0  0  0  0  0  0  0  0
   39.1078    4.1651   35.2928 C   0  0  0  0  0  0  0  0  0  0  0  0
   38.7092    5.3926   35.6845 C   0  0  0  0  0  0  0  0  0  0  0  0
   38.9382    6.0094   37.0024 C   0  0  0  0  0  0  0  0  0  0  0  0
   38.2167    7.2281   37.1317 N   0  0  0  0  0  0  0  0  0  0  0  0
   37.5795    7.4095   35.8755 C   0  0  0  0  0  0  0  0  0  0  0  0
   37.8550    6.3776   34.9901 C   0  0  0  0  0  0  0  0  0  0  0  0
   36.8658    8.5414   35.4836 C   0  0  0  0  0  0  0  0  0  0  0  0
   36.4436    8.6354   34.1494 C   0  0  0  0  0  0  0  0  0  0  0  0
   36.7826    7.6292   33.2261 C   0  0  0  0  0  0  0  0  0  0  0  0
   37.5197    6.5058   33.6356 C   0  0  0  0  0  0  0  0  0  0  0  0
   39.6265    5.5215   37.9367 O   0  0  0  0  0  0  0  0  0  0  0  0
   37.4212    3.5093   33.6232 N   0  0  0  0  0  0  0  0  0  0  0  0
   36.8961    2.5981   32.7376 O   0  0  0  0  0  0  0  0  0  0  0  0
   40.7763    3.7390   36.7116 H   0  0  0  0  0  0  0  0  0  0  0  0
   41.9220    1.2855   36.2708 H   0  0  0  0  0  0  0  0  0  0  0  0
   41.9605   -0.6960   34.7528 H   0  0  0  0  0  0  0  0  0  0  0  0
   40.3685   -0.8420   32.8503 H   0  0  0  0  0  0  0  0  0  0  0  0
   38.7343    0.9793   32.4397 H   0  0  0  0  0  0  0  0  0  0  0  0
   38.2131    7.8800   37.9474 H   0  0  0  0  0  0  0  0  0  0  0  0
   36.6648    9.3411   36.1846 H   0  0  0  0  0  0  0  0  0  0  0  0
   35.8908    9.5054   33.8196 H   0  0  0  0  0  0  0  0  0  0  0  0
   36.5018    7.7379   32.1864 H   0  0  0  0  0  0  0  0  0  0  0  0
   37.8605    5.8010   32.8939 H   0  0  0  0  0  0  0  0  0  0  0  0
   36.5480    2.9084   31.8395 H   0  0  0  0  0  0  0  0  0  0  0  0
  1  2  1  0
  1  3  2  0
  3  4  1  0
  3  5  1  0
  5  6  2  0
  6  7  1  0
  1  8  1  0
  7  8  2  0
  2  9  1  0
  4  9  1  0
  9 10  2  0
 10 11  1  0
 11 12  1  0
 12 13  1  0
 10 14  1  0
 13 14  2  0
 13 15  1  0
 15 16  2  0
 16 17  1  0
 14 18  1  0
 17 18  2  0
 11 19  2  0
  2 20  2  0
 20 21  1  0
  4 22  1  0
  5 23  1  0
  6 24  1  0
  7 25  1  0
  8 26  1  0
 12 27  1  0
 15 28  1  0
 16 29  1  0
 17 30  1  0
 18 31  1  0
 21 32  1  0
M  END
