1TZ8_DES_B_128
     RDKit          3D

 20 21  0  0  0  0  0  0  0  0999 V2000
   21.4428   60.2657   10.6377 C   0  0  0  0  0  0  0  0  0  0  0  0
   22.4535   59.9912    9.5461 C   0  0  0  0  0  0  0  0  0  0  0  0
   21.8662   59.0670    8.5052 C   0  0  0  0  0  0  0  0  0  0  0  0
   20.3775   58.9272    8.4311 C   0  0  0  0  0  0  0  0  0  0  0  0
   19.6842   59.6819    7.4978 C   0  0  0  0  0  0  0  0  0  0  0  0
   18.3054   59.5978    7.4284 C   0  0  0  0  0  0  0  0  0  0  0  0
   17.6187   58.7609    8.2830 C   0  0  0  0  0  0  0  0  0  0  0  0
   16.2533   58.7071    8.1904 O   0  0  0  0  0  0  0  0  0  0  0  0
   18.3025   58.0082    9.2340 C   0  0  0  0  0  0  0  0  0  0  0  0
   19.6927   58.0927    9.3132 C   0  0  0  0  0  0  0  0  0  0  0  0
   22.6743   58.4094    7.6924 C   0  0  0  0  0  0  0  0  0  0  0  0
   24.1525   58.6313    7.8327 C   0  0  0  0  0  0  0  0  0  0  0  0
   25.0592   57.5796    7.9580 C   0  0  0  0  0  0  0  0  0  0  0  0
   26.4276   57.8610    8.0766 C   0  0  0  0  0  0  0  0  0  0  0  0
   26.8798   59.1831    8.0743 C   0  0  0  0  0  0  0  0  0  0  0  0
   28.2215   59.4913    8.1947 O   0  0  0  0  0  0  0  0  0  0  0  0
   25.9677   60.2188    7.9522 C   0  0  0  0  0  0  0  0  0  0  0  0
   24.6111   59.9417    7.8330 C   0  0  0  0  0  0  0  0  0  0  0  0
   22.0977   57.5036    6.6244 C   0  0  0  0  0  0  0  0  0  0  0  0
   21.6188   58.3939    5.4914 C   0  0  0  0  0  0  0  0  0  0  0  0
  1  2  1  0
  2  3  1  0
  3  4  1  0
  4  5  2  0
  5  6  1  0
  6  7  2  0
  7  8  1  0
  7  9  1  0
  4 10  1  0
  9 10  2  0
  3 11  2  0
 11 12  1  0
 12 13  2  0
 13 14  1  0
 14 15  2  0
 15 16  1  0
 15 17  1  0
 12 18  1  0
 17 18  2  0
 11 19  1  0
 19 20  1  0
M  END
