1TZ8_DES_B_128
     RDKit          3D

 40 41  0  0  0  0  0  0  0  0999 V2000
   39.7294   49.7818    0.1271 C   0  0  2  0  0  0  0  0  0  0  0  0
   38.3479   50.3434   -0.1956 C   0  0  2  0  0  0  0  0  0  0  0  0
   37.2577   49.5002    0.4342 C   0  0  0  0  0  0  0  0  0  0  0  0
   36.8998   49.8292    1.8307 C   0  0  0  0  0  0  0  0  0  0  0  0
   37.4706   49.1086    2.8896 C   0  0  0  0  0  0  0  0  0  0  0  0
   37.1517   49.4318    4.2119 C   0  0  0  0  0  0  0  0  0  0  0  0
   36.2690   50.4863    4.4854 C   0  0  0  0  0  0  0  0  0  0  0  0
   35.9433   50.8173    5.7986 O   0  0  0  0  0  0  0  0  0  0  0  0
   35.7108   51.2160    3.4302 C   0  0  0  0  0  0  0  0  0  0  0  0
   36.0282   50.8939    2.1073 C   0  0  0  0  0  0  0  0  0  0  0  0
   36.5809   48.5471   -0.2626 C   0  0  0  0  0  0  0  0  0  0  0  0
   36.9389   48.2181   -1.6591 C   0  0  0  0  0  0  0  0  0  0  0  0
   37.7942   47.1406   -1.9368 C   0  0  0  0  0  0  0  0  0  0  0  0
   38.1114   46.8188   -3.2598 C   0  0  0  0  0  0  0  0  0  0  0  0
   37.5672   47.5642   -4.3151 C   0  0  0  0  0  0  0  0  0  0  0  0
   37.8767   47.2538   -5.6374 O   0  0  0  0  0  0  0  0  0  0  0  0
   36.7026   48.6291   -4.0396 C   0  0  0  0  0  0  0  0  0  0  0  0
   36.3839   48.9522   -2.7172 C   0  0  0  0  0  0  0  0  0  0  0  0
   35.4907   47.7039    0.3672 C   0  0  2  0  0  0  0  0  0  0  0  0
   34.1079   48.2102   -0.0320 C   0  0  2  0  0  0  0  0  0  0  0  0
   39.8868   48.8182   -0.4026 H   0  0  0  0  0  0  0  0  0  0  0  0
   39.8397   49.6198    1.2194 H   0  0  0  0  0  0  0  0  0  0  0  0
   40.5087   50.4998   -0.2042 H   0  0  0  0  0  0  0  0  0  0  0  0
   38.2215   50.3561   -1.3002 H   0  0  0  0  0  0  0  0  0  0  0  0
   38.2893   51.4009    0.1336 H   0  0  0  0  0  0  0  0  0  0  0  0
   38.1564   48.2943    2.6896 H   0  0  0  0  0  0  0  0  0  0  0  0
   37.5919   48.8648    5.0222 H   0  0  0  0  0  0  0  0  0  0  0  0
   36.3474   50.3223    6.5851 H   0  0  0  0  0  0  0  0  0  0  0  0
   35.0327   52.0343    3.6358 H   0  0  0  0  0  0  0  0  0  0  0  0
   35.5944   51.4694    1.2987 H   0  0  0  0  0  0  0  0  0  0  0  0
   38.2154   46.5549   -1.1289 H   0  0  0  0  0  0  0  0  0  0  0  0
   38.7773   45.9900   -3.4637 H   0  0  0  0  0  0  0  0  0  0  0  0
   38.6379   46.6266   -5.8696 H   0  0  0  0  0  0  0  0  0  0  0  0
   36.2760   49.2051   -4.8509 H   0  0  0  0  0  0  0  0  0  0  0  0
   35.7105   49.7766   -2.5164 H   0  0  0  0  0  0  0  0  0  0  0  0
   35.5758   47.7469    1.4749 H   0  0  0  0  0  0  0  0  0  0  0  0
   35.5899   46.6341    0.0917 H   0  0  0  0  0  0  0  0  0  0  0  0
   33.8918   49.1770    0.4703 H   0  0  0  0  0  0  0  0  0  0  0  0
   33.3388   47.4710    0.2758 H   0  0  0  0  0  0  0  0  0  0  0  0
   34.0451   48.3482   -1.1314 H   0  0  0  0  0  0  0  0  0  0  0  0
  1  2  1  0
  2  3  1  0
  3  4  1  0
  4  5  2  0
  5  6  1  0
  6  7  2  0
  7  8  1  0
  7  9  1  0
  4 10  1  0
  9 10  2  0
  3 11  2  0
 11 12  1  0
 12 13  2  0
 13 14  1  0
 14 15  2  0
 15 16  1  0
 15 17  1  0
 12 18  1  0
 17 18  2  0
 11 19  1  0
 19 20  1  0
  1 21  1  6
  1 22  1  0
  1 23  1  0
  2 24  1  6
  2 25  1  0
  5 26  1  0
  6 27  1  0
  8 28  1  0
  9 29  1  0
 10 30  1  0
 13 31  1  0
 14 32  1  0
 16 33  1  0
 17 34  1  0
 18 35  1  0
 19 36  1  1
 19 37  1  0
 20 38  1  1
 20 39  1  0
 20 40  1  0
M  END
