7OKC_VFE_A_1001
     RDKit          3D

 49 51  0  0  0  0  0  0  0  0999 V2000
   29.2655    6.9241   -9.0004 C   0  0  0  0  0  0  0  0  0  0  0  0
   28.8988    7.7872  -10.0352 C   0  0  0  0  0  0  0  0  0  0  0  0
   32.5372    6.6294  -10.9673 C   0  0  0  0  0  0  0  0  0  0  0  0
   31.8959    6.8498   -8.6475 C   0  0  0  0  0  0  0  0  0  0  0  0
   31.9168    7.8474  -11.2564 C   0  0  0  0  0  0  0  0  0  0  0  0
   31.2671    8.0634   -8.9363 C   0  0  0  0  0  0  0  0  0  0  0  0
   29.3318    5.5471   -9.2287 C   0  0  0  0  0  0  0  0  0  0  0  0
   28.6029    7.2747  -11.3009 C   0  0  0  0  0  0  0  0  0  0  0  0
   29.0572   11.2995  -10.6544 C   0  0  0  0  0  0  0  0  0  0  0  0
   31.0392   10.8728  -11.2138 C   0  0  0  0  0  0  0  0  0  0  0  0
   32.5050    6.1018   -9.6666 C   0  0  0  0  0  0  0  0  0  0  0  0
   31.2535    8.5689  -10.2472 C   0  0  0  0  0  0  0  0  0  0  0  0
   29.0571    5.0266  -10.5003 C   0  0  0  0  0  0  0  0  0  0  0  0
   28.6877    5.8979  -11.5428 C   0  0  0  0  0  0  0  0  0  0  0  0
   33.1981    3.2015   -6.6865 C   0  0  0  0  0  0  0  0  0  0  0  0
   31.6555    2.8021   -9.7656 C   0  0  0  0  0  0  0  0  0  0  0  0
   34.2335    1.4862   -5.1506 C   0  0  2  0  0  0  0  0  0  0  0  0
   33.1801    4.7876   -9.3527 C   0  0  2  0  0  0  0  0  0  0  0  0
   31.9638    3.6357   -7.4198 C   0  0  1  0  0  0  0  0  0  0  0  0
   30.9493    3.2047  -11.0263 C   0  0  1  0  0  0  0  0  0  0  0  0
   30.1069   11.8403  -11.3083 N   0  0  0  0  0  0  0  0  0  0  0  0
   29.3243   10.0663  -10.1855 N   0  0  0  0  0  0  0  0  0  0  0  0
   30.5717    9.8060  -10.5362 N   0  0  0  0  0  0  0  0  0  0  0  0
   33.0995    2.2931   -5.5830 N   0  0  0  0  0  0  0  0  0  0  0  0
   32.2239    3.7752   -8.8629 N   0  0  0  0  0  0  0  0  0  0  0  0
   34.3252    3.6214   -7.0648 O   0  0  0  0  0  0  0  0  0  0  0  0
   31.7009    1.5766   -9.4724 O   0  0  0  0  0  0  0  0  0  0  0  0
   29.1442    3.2458  -10.7556 S   0  0  0  0  0  0  0  0  0  0  0  0
   28.3353    5.2992  -13.1584 Cl  0  0  0  0  0  0  0  0  0  0  0  0
   29.4935    7.3212   -8.0199 H   0  0  0  0  0  0  0  0  0  0  0  0
   28.8470    8.8537   -9.8581 H   0  0  0  0  0  0  0  0  0  0  0  0
   33.0587    6.1121  -11.7611 H   0  0  0  0  0  0  0  0  0  0  0  0
   31.9202    6.5067   -7.6222 H   0  0  0  0  0  0  0  0  0  0  0  0
   31.9640    8.2190  -12.2696 H   0  0  0  0  0  0  0  0  0  0  0  0
   30.7857    8.6058   -8.1328 H   0  0  0  0  0  0  0  0  0  0  0  0
   29.6016    4.8847   -8.4165 H   0  0  0  0  0  0  0  0  0  0  0  0
   28.3220    7.9511  -12.0982 H   0  0  0  0  0  0  0  0  0  0  0  0
   28.1064   11.7989  -10.5256 H   0  0  0  0  0  0  0  0  0  0  0  0
   32.0241   10.9521  -11.6524 H   0  0  0  0  0  0  0  0  0  0  0  0
   33.8920    0.4593   -4.9022 H   0  0  0  0  0  0  0  0  0  0  0  0
   34.6960    1.9388   -4.2484 H   0  0  0  0  0  0  0  0  0  0  0  0
   34.9933    1.4406   -5.9591 H   0  0  0  0  0  0  0  0  0  0  0  0
   33.9705    4.9630   -8.5927 H   0  0  0  0  0  0  0  0  0  0  0  0
   33.7204    4.4038  -10.2456 H   0  0  0  0  0  0  0  0  0  0  0  0
   31.1603    2.8920   -7.2295 H   0  0  0  0  0  0  0  0  0  0  0  0
   31.5850    4.5920   -7.0088 H   0  0  0  0  0  0  0  0  0  0  0  0
   31.2897    4.1843  -11.3998 H   0  0  0  0  0  0  0  0  0  0  0  0
   31.1677    2.4540  -11.8141 H   0  0  0  0  0  0  0  0  0  0  0  0
   32.1949    2.2048   -5.0689 H   0  0  0  0  0  0  0  0  0  0  0  0
  1  2  2  0
  3  5  2  0
  4  6  1  0
  1  7  1  0
  2  8  1  0
  3 11  1  0
  4 11  2  0
  5 12  1  0
  6 12  2  0
  7 13  2  0
  8 14  2  0
 13 14  1  0
 11 18  1  0
 15 19  1  0
 16 20  1  0
  9 21  1  0
 10 21  2  0
  9 22  2  0
 22 23  1  0
 10 23  1  0
 12 23  1  0
 17 24  1  0
 15 24  1  0
 19 25  1  0
 18 25  1  0
 16 25  1  0
 15 26  2  0
 16 27  2  0
 20 28  1  0
 13 28  1  0
 14 29  1  0
  1 30  1  0
  2 31  1  0
  3 32  1  0
  4 33  1  0
  5 34  1  0
  6 35  1  0
  7 36  1  0
  8 37  1  0
  9 38  1  0
 10 39  1  0
 17 40  1  1
 17 41  1  0
 17 42  1  0
 18 43  1  1
 18 44  1  0
 19 45  1  6
 19 46  1  0
 20 47  1  6
 20 48  1  0
 24 49  1  0
M  END
