7W06_ITN_A_301
     RDKit          3D

  9  8  0  0  0  0  0  0  0  0999 V2000
  -18.6770   17.6351   26.7918 C   0  0  0  0  0  0  0  0  0  0  0  0
  -19.1474   17.8366   28.1663 C   0  0  0  0  0  0  0  0  0  0  0  0
  -20.4811   17.2208   28.4234 C   0  0  0  0  0  0  0  0  0  0  0  0
  -20.5176   15.9452   29.1612 C   0  0  0  0  0  0  0  0  0  0  0  0
  -21.4468   15.7464   30.2005 O   0  0  0  0  0  0  0  0  0  0  0  0
  -19.7079   15.0300   28.8551 O   0  0  0  0  0  0  0  0  0  0  0  0
  -21.6182   17.7691   28.0186 C   0  0  0  0  0  0  0  0  0  0  0  0
  -19.0314   16.6711   26.0593 O   0  0  0  0  0  0  0  0  0  0  0  0
  -17.7731   18.5888   26.2796 O   0  0  0  0  0  0  0  0  0  0  0  0
  1  2  1  0
  2  3  1  0
  3  4  1  0
  4  5  1  0
  4  6  2  0
  3  7  2  0
  1  8  2  0
  1  9  1  0
M  END
$$$$
