6YDY_K73_A_302
     RDKit          3D

 56 58  0  0  0  0  0  0  0  0999 V2000
   19.6451    1.0125   -0.8166 N   0  0  0  0  0  0  0  0  0  0  0  0
   19.3925    1.3555    0.6016 C   0  0  0  0  0  0  0  0  0  0  0  0
   27.0139    1.3607    4.9410 O   0  0  0  0  0  0  0  0  0  0  0  0
   20.6278    1.3580    1.4787 C   0  0  0  0  0  0  0  0  0  0  0  0
   28.6917    1.9383    1.2437 C   0  0  0  0  0  0  0  0  0  0  0  0
   26.2677    1.2760    0.9332 C   0  0  0  0  0  0  0  0  0  0  0  0
   25.4591    0.1937    1.6432 C   0  0  2  0  0  0  0  0  0  0  0  0
   26.0167   -1.1894    1.2916 C   0  0  0  0  0  0  0  0  0  0  0  0
   25.6746   -1.7088   -0.0832 C   0  0  0  0  0  0  0  0  0  0  0  0
   25.7693   -0.8903   -1.2024 C   0  0  0  0  0  0  0  0  0  0  0  0
   25.5128   -1.3905   -2.4673 C   0  0  0  0  0  0  0  0  0  0  0  0
   25.1411   -2.7076   -2.6292 C   0  0  0  0  0  0  0  0  0  0  0  0
   25.0277   -3.5222   -1.5269 C   0  0  0  0  0  0  0  0  0  0  0  0
   25.2956   -3.0270   -0.2636 C   0  0  0  0  0  0  0  0  0  0  0  0
   21.5046    2.4312    1.5009 C   0  0  0  0  0  0  0  0  0  0  0  0
   21.9709    0.3089    3.1873 C   0  0  0  0  0  0  0  0  0  0  0  0
   20.8847    0.2899    2.3288 C   0  0  0  0  0  0  0  0  0  0  0  0
   22.5967    2.4445    2.3538 C   0  0  0  0  0  0  0  0  0  0  0  0
   22.8371    1.3905    3.2213 C   0  0  0  0  0  0  0  0  0  0  0  0
   23.9843    1.4545    4.2028 C   0  0  0  0  0  0  0  0  0  0  0  0
   26.4036    1.5904    3.9000 C   0  0  0  0  0  0  0  0  0  0  0  0
   26.9699    2.5581    2.8638 C   0  0  1  0  0  0  0  0  0  0  0  0
   28.3402    3.1046    3.3013 C   0  0  0  0  0  0  0  0  0  0  0  0
   29.1689    3.1384    2.0236 C   0  0  0  0  0  0  0  0  0  0  0  0
   25.2384    1.0224    3.6062 N   0  0  0  0  0  0  0  0  0  0  0  0
   27.2647    1.8726    1.6002 N   0  0  0  0  0  0  0  0  0  0  0  0
   24.1000    0.3459    1.0892 N   0  0  0  0  0  0  0  0  0  0  0  0
   26.0163    1.5652   -0.2222 O   0  0  0  0  0  0  0  0  0  0  0  0
   18.7660    1.0338   -1.3335 H   0  0  0  0  0  0  0  0  0  0  0  0
   20.2930    1.6892   -1.2199 H   0  0  0  0  0  0  0  0  0  0  0  0
   18.9563    2.3319    0.6363 H   0  0  0  0  0  0  0  0  0  0  0  0
   18.7474    0.5942    0.9879 H   0  0  0  0  0  0  0  0  0  0  0  0
   28.8209    2.0845    0.1917 H   0  0  0  0  0  0  0  0  0  0  0  0
   29.2293    1.0413    1.4703 H   0  0  0  0  0  0  0  0  0  0  0  0
   25.4863    0.2839    2.7090 H   0  0  0  0  0  0  0  0  0  0  0  0
   27.0829   -1.1419    1.3680 H   0  0  0  0  0  0  0  0  0  0  0  0
   25.5591   -1.8692    1.9797 H   0  0  0  0  0  0  0  0  0  0  0  0
   26.0336    0.1009   -1.0893 H   0  0  0  0  0  0  0  0  0  0  0  0
   25.6001   -0.7754   -3.2914 H   0  0  0  0  0  0  0  0  0  0  0  0
   24.9489   -3.0805   -3.5721 H   0  0  0  0  0  0  0  0  0  0  0  0
   24.7416   -4.5070   -1.6428 H   0  0  0  0  0  0  0  0  0  0  0  0
   25.2116   -3.6492    0.5554 H   0  0  0  0  0  0  0  0  0  0  0  0
   21.3414    3.2332    0.8723 H   0  0  0  0  0  0  0  0  0  0  0  0
   22.1383   -0.4952    3.8120 H   0  0  0  0  0  0  0  0  0  0  0  0
   20.2572   -0.5293    2.3203 H   0  0  0  0  0  0  0  0  0  0  0  0
   23.2406    3.2510    2.3430 H   0  0  0  0  0  0  0  0  0  0  0  0
   24.0928    2.4636    4.5417 H   0  0  0  0  0  0  0  0  0  0  0  0
   23.7608    0.7946    5.0149 H   0  0  0  0  0  0  0  0  0  0  0  0
   26.2301    3.3240    2.7591 H   0  0  0  0  0  0  0  0  0  0  0  0
   28.2407    4.0874    3.7127 H   0  0  0  0  0  0  0  0  0  0  0  0
   28.7924    2.5021    4.0612 H   0  0  0  0  0  0  0  0  0  0  0  0
   28.9897    4.0415    1.4785 H   0  0  0  0  0  0  0  0  0  0  0  0
   30.2212    3.1115    2.2157 H   0  0  0  0  0  0  0  0  0  0  0  0
   25.2237    0.2803    2.9595 H   0  0  0  0  0  0  0  0  0  0  0  0
   24.1341    0.2512    0.0742 H   0  0  0  0  0  0  0  0  0  0  0  0
   23.4918   -0.3749    1.4776 H   0  0  0  0  0  0  0  0  0  0  0  0
  1  2  1  0
  2  4  1  0
  6  7  1  0
  7  8  1  0
  8  9  1  0
  9 10  4  0
 10 11  4  0
 11 12  4  0
 12 13  4  0
  9 14  4  0
 13 14  4  0
  4 15  4  0
 16 17  4  0
  4 17  4  0
 15 18  4  0
 18 19  4  0
 16 19  4  0
 19 20  1  0
  3 21  2  0
 22 21  1  0
 22 23  1  0
 23 24  1  0
  5 24  1  0
 20 25  1  0
 21 25  1  0
  5 26  1  0
 22 26  1  0
  6 26  1  0
  7 27  1  0
  6 28  2  0
  1 29  1  0
  1 30  1  0
  2 31  1  0
  2 32  1  0
  5 33  1  0
  5 34  1  0
  7 35  1  6
  8 36  1  0
  8 37  1  0
 10 38  1  0
 11 39  1  0
 12 40  1  0
 13 41  1  0
 14 42  1  0
 15 43  1  0
 16 44  1  0
 17 45  1  0
 18 46  1  0
 20 47  1  0
 20 48  1  0
 22 49  1  1
 23 50  1  0
 23 51  1  0
 24 52  1  0
 24 53  1  0
 25 54  1  0
 27 55  1  0
 27 56  1  0
M  END
