7NLV_UJE_CCC_201
     RDKit          3D

 21 23  0  0  0  0  0  0  0  0999 V2000
   -4.5761    3.5538   24.9059 O   0  0  0  0  0  0  0  0  0  0  0  0
   -4.8731   11.9316   21.8790 O   0  0  0  0  0  0  0  0  0  0  0  0
   -5.7620    3.6466   25.3703 C   0  0  0  0  0  0  0  0  0  0  0  0
   -6.6003    4.8470   25.1930 C   0  0  0  0  0  0  0  0  0  0  0  0
   -5.9573    5.9149   24.3605 C   0  0  0  0  0  0  0  0  0  0  0  0
   -6.8606    7.1287   24.4191 C   0  0  0  0  0  0  0  0  0  0  0  0
   -6.1076    8.3954   24.0739 C   0  0  0  0  0  0  0  0  0  0  0  0
   -5.0640    8.7544   25.1116 C   0  0  2  0  0  0  0  0  0  0  0  0
   -5.9377    9.6844   26.4064 S   0  0  0  0  0  0  0  0  0  0  0  0
   -5.4228   11.3308   25.8302 C   0  0  0  0  0  0  0  0  0  0  0  0
   -4.1142   11.0187   25.2110 C   0  0  2  0  0  0  0  0  0  0  0  0
   -3.9308   11.9755   24.1092 N   0  0  0  0  0  0  0  0  0  0  0  0
   -4.4183   11.3692   22.9085 C   0  0  0  0  0  0  0  0  0  0  0  0
   -4.2902    9.9641   23.0989 N   0  0  0  0  0  0  0  0  0  0  0  0
   -4.1222    9.7340   24.5073 C   0  0  2  0  0  0  0  0  0  0  0  0
   -6.3029    2.5546   26.0876 N   0  0  0  0  0  0  0  0  0  0  0  0
   -5.4916    1.4277   26.4931 C   0  0  1  0  0  0  0  0  0  0  0  0
   -4.4935    1.7590   27.5555 C   0  0  0  0  0  0  0  0  0  0  0  0
   -4.2725    0.4435   28.2504 C   0  0  0  0  0  0  0  0  0  0  0  0
   -5.1847   -0.5064   27.6452 N   0  0  0  0  0  0  0  0  0  0  0  0
   -6.2853    0.3172   27.1202 C   0  0  0  0  0  0  0  0  0  0  0  0
  1  3  2  0
  3  4  1  0
  4  5  1  0
  5  6  1  0
  6  7  1  0
  8  7  1  6
  8  9  1  0
  9 10  1  0
 11 10  1  6
 11 12  1  0
 12 13  1  0
  2 13  2  0
 13 14  1  0
 11 15  1  0
 15 14  1  6
  8 15  1  0
  3 16  1  0
 17 16  1  1
 17 18  1  0
 18 19  1  0
 19 20  1  0
 17 21  1  0
 20 21  1  0
M  END
$$$$
