6ZC3_JOR_B_401
     RDKit          3D

 23 23  0  0  0  0  0  0  0  0999 V2000
  -16.0813   26.1003    5.6386 C   0  0  2  0  0  0  0  0  0  0  0  0
  -15.9491   26.7116    3.9732 S   0  0  1  0  0  6  0  0  0  0  0  0
  -16.2795   25.6070    3.0097 O   0  0  0  0  0  0  0  0  0  0  0  0
  -16.9207   27.8396    3.7654 O   0  0  0  0  0  0  0  0  0  0  0  0
  -14.3306   27.2579    3.6730 N   0  0  0  0  0  0  0  0  0  0  0  0
  -13.9341   28.6335    3.8004 C   0  0  0  0  0  0  0  0  0  0  0  0
  -14.7651   29.5368    4.4876 C   0  0  0  0  0  0  0  0  0  0  0  0
  -14.3579   30.8525    4.7095 C   0  0  0  0  0  0  0  0  0  0  0  0
  -13.1123   31.2841    4.2582 C   0  0  0  0  0  0  0  0  0  0  0  0
  -12.7170   32.5617    4.4807 F   0  0  0  0  0  0  0  0  0  0  0  0
  -12.2744   30.4039    3.5715 C   0  0  0  0  0  0  0  0  0  0  0  0
  -12.6737   29.0770    3.3221 C   0  0  0  0  0  0  0  0  0  0  0  0
  -11.7823   28.2033    2.5224 C   0  0  0  0  0  0  0  0  0  0  0  0
  -10.6388   28.6102    2.1809 O   0  0  0  0  0  0  0  0  0  0  0  0
  -12.2103   26.9473    2.1010 O   0  0  0  0  0  0  0  0  0  0  0  0
  -15.1133   26.2390    6.1627 H   0  0  0  0  0  0  0  0  0  0  0  0
  -16.3401   25.0222    5.6262 H   0  0  0  0  0  0  0  0  0  0  0  0
  -16.8740   26.6607    6.1758 H   0  0  0  0  0  0  0  0  0  0  0  0
  -13.6378   26.5477    3.3488 H   0  0  0  0  0  0  0  0  0  0  0  0
  -15.7200   29.2177    4.8810 H   0  0  0  0  0  0  0  0  0  0  0  0
  -15.0058   31.5347    5.2450 H   0  0  0  0  0  0  0  0  0  0  0  0
  -11.3193   30.7682    3.2130 H   0  0  0  0  0  0  0  0  0  0  0  0
  -11.6322   26.3761    1.4963 H   0  0  0  0  0  0  0  0  0  0  0  0
  1  2  1  0
  2  3  2  0
  2  4  2  0
  2  5  1  6
  5  6  1  0
  6  7  2  0
  7  8  1  0
  8  9  2  0
  9 10  1  0
  9 11  1  0
 11 12  2  0
  6 12  1  0
 12 13  1  0
 13 14  2  0
 13 15  1  0
  1 16  1  1
  1 17  1  0
  1 18  1  0
  5 19  1  0
  7 20  1  0
  8 21  1  0
 11 22  1  0
 15 23  1  0
M  END
