
     RDKit          3D

 26 28  0  0  0  0  0  0  0  0999 V2000
   54.3695  -40.3691   27.3146 N   0  0  0  0  0  0  0  0  0  0  0  0
   53.9579  -41.6387   27.5231 C   0  0  0  0  0  0  0  0  0  0  0  0
   54.4838  -42.7836   27.0359 N   0  0  0  0  0  0  0  0  0  0  0  0
   55.5536  -42.5193   26.2664 C   0  0  0  0  0  0  0  0  0  0  0  0
   56.0868  -41.2792   25.9593 C   0  0  0  0  0  0  0  0  0  0  0  0
   55.4404  -40.1624   26.5135 C   0  0  0  0  0  0  0  0  0  0  0  0
   55.8565  -38.8558   26.2950 N   0  0  0  0  0  0  0  0  0  0  0  0
   57.1934  -41.4119   25.1458 N   0  0  0  0  0  0  0  0  0  0  0  0
   57.3296  -42.7107   24.9682 C   0  0  0  0  0  0  0  0  0  0  0  0
   56.3473  -43.4178   25.6063 N   0  0  0  0  0  0  0  0  0  0  0  0
   60.1146  -48.2011   24.6509 P   0  0  1  0  0  5  0  0  0  0  0  0
   58.1977  -49.9075   24.3967 C   0  0  0  0  0  0  0  0  0  0  0  0
   56.1500  -44.8539   25.6321 C   0  0  1  0  0  0  0  0  0  0  0  0
   61.0793  -48.0547   25.9223 O   0  0  0  0  0  0  0  0  0  0  0  0
   57.6687  -49.6758   23.3257 O   0  0  0  0  0  0  0  0  0  0  0  0
   55.1485  -45.3460   24.5751 C   0  0  2  0  0  0  0  0  0  0  0  0
   54.3556  -46.4465   25.0642 O   0  0  0  0  0  0  0  0  0  0  0  0
   60.8594  -48.8327   23.5164 O   0  0  0  0  0  0  0  0  0  0  0  0
   58.1773  -51.1324   24.9743 N   0  0  0  0  0  0  0  0  0  0  0  0
   56.0647  -45.8677   23.4809 C   0  0  2  0  0  0  0  0  0  0  0  0
   55.4270  -46.8376   22.6643 O   0  0  0  0  0  0  0  0  0  0  0  0
   58.8637  -49.0456   25.1638 O   0  0  0  0  0  0  0  0  0  0  0  0
   57.2183  -46.4404   24.2901 C   0  0  2  0  0  0  0  0  0  0  0  0
   57.4099  -45.5138   25.3795 O   0  0  0  0  0  0  0  0  0  0  0  0
   58.4971  -46.5734   23.4691 C   0  0  0  0  0  0  0  0  0  0  0  0
   59.6057  -46.7125   24.3471 O   0  0  0  0  0  0  0  0  0  0  0  0
  1  2  4  0
  2  3  4  0
  3  4  4  0
  4  5  4  0
  1  6  4  0
  5  6  4  0
  6  7  1  0
  5  8  4  0
  8  9  4  0
  4 10  4  0
  9 10  4  0
 13 10  1  6
 11 14  1  1
 12 15  2  0
 13 16  1  0
 16 17  1  1
 11 18  2  0
 12 19  1  0
 16 20  1  0
 20 21  1  1
 11 22  1  0
 12 22  1  0
 20 23  1  0
 13 24  1  0
 23 24  1  0
 23 25  1  6
 11 26  1  0
 25 26  1  0
M  END
