7D8Q_GZF_A_201
     RDKit          3D

 43 45  0  0  0  0  0  0  0  0999 V2000
  -12.4594   -0.5989    5.2224 O   0  0  0  0  0  0  0  0  0  0  0  0
  -11.6325   -0.7374    4.0922 C   0  0  2  0  0  0  0  0  0  0  0  0
  -12.4643   -0.9853    2.8321 C   0  0  2  0  0  0  0  0  0  0  0  0
  -13.7959   -0.2272    2.8138 C   0  0  0  0  0  0  0  0  0  0  0  0
  -13.9246    0.4961    4.0148 O   0  0  0  0  0  0  0  0  0  0  0  0
  -13.5322   -0.5333    5.3181 P   0  0  1  0  0  5  0  0  0  0  0  0
  -14.8006   -1.6118    5.6469 O   0  0  0  0  0  0  0  0  0  0  0  0
  -12.2873   -1.3203    4.9714 O   0  0  0  0  0  0  0  0  0  0  0  0
  -13.1978    0.4158    6.6907 O   0  0  0  0  0  0  0  0  0  0  0  0
  -12.4688    1.8670    6.1705 P   0  0  1  0  0  5  0  0  0  0  0  0
  -13.0249    2.1987    4.6061 O   0  0  0  0  0  0  0  0  0  0  0  0
  -12.8602    3.1752    7.1780 O   0  0  0  0  0  0  0  0  0  0  0  0
  -10.7504    1.6635    6.1205 S   0  0  0  0  0  0  0  0  0  0  0  0
  -12.6917   -2.3733    2.6979 O   0  0  0  0  0  0  0  0  0  0  0  0
  -11.7711   -3.0430    3.5354 C   0  0  1  0  0  0  0  0  0  0  0  0
  -11.0225   -4.0408    2.7688 N   0  0  0  0  0  4  0  0  0  0  0  0
   -9.7283   -3.9639    2.3635 C   0  0  0  0  0  0  0  0  0  0  0  0
   -9.3409   -5.0132    1.5856 N   0  0  0  0  0  0  0  0  0  0  0  0
  -10.4620   -5.7542    1.5110 C   0  0  0  0  0  0  0  0  0  0  0  0
  -10.6890   -6.9396    0.8286 C   0  0  0  0  0  0  0  0  0  0  0  0
   -9.6781   -7.5588    0.1013 O   0  0  0  0  0  0  0  0  0  0  0  0
  -11.9432   -7.4795    0.8919 N   0  0  0  0  0  0  0  0  0  0  0  0
  -12.9491   -6.8705    1.6020 C   0  0  0  0  0  0  0  0  0  0  0  0
  -14.2463   -7.4594    1.6441 N   0  0  0  0  0  0  0  0  0  0  0  0
  -12.7119   -5.6993    2.2681 N   0  0  0  0  0  0  0  0  0  0  0  0
  -11.4645   -5.1737    2.2073 C   0  0  0  0  0  0  0  0  0  0  0  0
  -10.8263   -2.0120    4.1580 C   0  0  2  0  0  0  0  0  0  0  0  0
  -10.4067   -2.3478    5.4608 O   0  0  0  0  0  0  0  0  0  0  0  0
  -11.9241   -0.1245    5.9111 H   0  0  0  0  0  0  0  0  0  0  0  0
  -10.9786    0.1572    3.9636 H   0  0  0  0  0  0  0  0  0  0  0  0
  -11.8686   -0.6483    1.9530 H   0  0  0  0  0  0  0  0  0  0  0  0
  -13.7964    0.4676    1.9444 H   0  0  0  0  0  0  0  0  0  0  0  0
  -14.6208   -0.9692    2.7085 H   0  0  0  0  0  0  0  0  0  0  0  0
  -14.6449   -2.3881    5.0513 H   0  0  0  0  0  0  0  0  0  0  0  0
  -12.6859    3.1054    4.3961 H   0  0  0  0  0  0  0  0  0  0  0  0
  -12.4977    3.9750    6.7201 H   0  0  0  0  0  0  0  0  0  0  0  0
  -12.3588   -3.5591    4.3265 H   0  0  0  0  0  0  0  0  0  0  0  0
   -9.0694   -3.1446    2.6202 H   0  0  0  0  0  0  0  0  0  0  0  0
   -9.8525   -8.4241   -0.3953 H   0  0  0  0  0  0  0  0  0  0  0  0
  -14.4376   -8.3527    1.1388 H   0  0  0  0  0  0  0  0  0  0  0  0
  -15.0167   -7.0025    2.1809 H   0  0  0  0  0  0  0  0  0  0  0  0
   -9.9235   -1.8897    3.5181 H   0  0  0  0  0  0  0  0  0  0  0  0
  -11.2033   -2.5926    5.9991 H   0  0  0  0  0  0  0  0  0  0  0  0
  2  1  1  0
  2  3  1  0
  3  4  1  0
  4  5  1  0
  6  5  1  1
  6  7  1  0
  6  8  2  0
  6  9  1  0
 10  9  1  6
 10 11  1  0
 10 12  1  0
 10 13  2  0
  3 14  1  0
 14 15  1  0
 15 16  1  0
 16 17  4  0
 17 18  4  0
 18 19  4  0
 19 20  4  0
 20 21  1  0
 20 22  4  0
 22 23  4  0
 23 24  1  0
 23 25  4  0
 25 26  4  0
 16 26  4  0
 19 26  4  0
  2 27  1  0
 15 27  1  0
 27 28  1  0
  1 29  1  0
  2 30  1  1
  3 31  1  1
  4 32  1  0
  4 33  1  0
  7 34  1  0
 11 35  1  0
 12 36  1  0
 15 37  1  6
 17 38  1  0
 21 39  1  0
 24 40  1  0
 24 41  1  0
 27 42  1  1
 28 43  1  0
M  CHG  1  16   1
M  END
