
     RDKit          3D

 21 22  0  0  0  0  0  0  0  0999 V2000
    7.8042   14.1808   40.1066 O   0  0  0  0  0  0  0  0  0  0  0  0
    7.2767   13.4579   38.7873 P   0  0  0  0  0  5  0  0  0  0  0  0
    5.9886   13.9806   38.2597 O   0  0  0  0  0  0  0  0  0  0  0  0
    7.1938   11.9354   39.2672 O   0  0  0  0  0  0  0  0  0  0  0  0
    8.5154   13.4514   37.7763 O   0  0  0  0  0  0  0  0  0  0  0  0
    8.9798   14.6715   37.2207 C   0  0  0  0  0  0  0  0  0  0  0  0
   10.5055   14.6329   37.1472 C   0  0  1  0  0  0  0  0  0  0  0  0
   10.9478   14.6316   35.7680 O   0  0  0  0  0  0  0  0  0  0  0  0
   11.1644   15.8474   37.7907 C   0  0  1  0  0  0  0  0  0  0  0  0
   11.2559   15.7724   39.2090 O   0  0  0  0  0  0  0  0  0  0  0  0
   12.5442   15.7909   37.1574 C   0  0  1  0  0  0  0  0  0  0  0  0
   13.3261   14.7967   37.8416 O   0  0  0  0  0  0  0  0  0  0  0  0
   12.2176   15.3440   35.7191 C   0  0  2  0  0  0  0  0  0  0  0  0
   12.1386   16.4566   34.7729 N   0  0  0  0  0  0  0  0  0  0  0  0
   13.2704   16.6726   33.9748 C   0  0  0  0  0  0  0  0  0  0  0  0
   14.2608   15.9533   34.0792 O   0  0  0  0  0  0  0  0  0  0  0  0
   13.2528   17.7134   33.0780 N   0  0  0  0  0  0  0  0  0  0  0  0
   12.2139   18.4819   32.9974 C   0  0  0  0  0  0  0  0  0  0  0  0
   12.2591   19.4947   32.0801 N   0  0  0  0  0  0  0  0  0  0  0  0
   11.0138   18.3083   33.8353 C   0  0  0  0  0  0  0  0  0  0  0  0
   11.0457   17.2913   34.6942 C   0  0  0  0  0  0  0  0  0  0  0  0
  1  2  1  0
  2  3  2  0
  2  4  1  0
  2  5  1  0
  5  6  1  0
  7  6  1  6
  7  8  1  0
  7  9  1  0
  9 10  1  1
  9 11  1  0
 11 12  1  1
  8 13  1  0
 11 13  1  0
 13 14  1  6
 14 15  4  0
 15 16  2  0
 15 17  4  0
 17 18  4  0
 18 19  1  0
 18 20  4  0
 14 21  4  0
 20 21  4  0
M  END
