7C6P_SQH_A_501
     RDKit          3D

 31 33  0  0  0  0  0  0  0  0999 V2000
   -0.2037  -11.8050   -4.3607 C   0  0  0  0  0  0  0  0  0  0  0  0
    2.5770  -13.1842   -7.1294 C   0  0  0  0  0  0  0  0  0  0  0  0
    2.0843  -11.8672   -7.1526 C   0  0  0  0  0  0  0  0  0  0  0  0
    2.5358  -10.8801   -8.1656 C   0  0  0  0  0  0  0  0  0  0  0  0
    3.1043   -9.6454   -7.7954 C   0  0  0  0  0  0  0  0  0  0  0  0
    3.5321   -8.7349   -8.7687 C   0  0  0  0  0  0  0  0  0  0  0  0
    3.4010   -9.0528  -10.1303 C   0  0  0  0  0  0  0  0  0  0  0  0
    2.8488  -10.2838  -10.5047 C   0  0  0  0  0  0  0  0  0  0  0  0
    2.4246  -11.1918   -9.5316 C   0  0  0  0  0  0  0  0  0  0  0  0
    0.7318  -12.2895   -5.2860 C   0  0  0  0  0  0  0  0  0  0  0  0
    1.1763  -13.6282   -5.2103 C   0  0  0  0  0  0  0  0  0  0  0  0
    0.6744  -14.4694   -4.2031 C   0  0  0  0  0  0  0  0  0  0  0  0
   -0.2581  -13.9827   -3.2841 C   0  0  0  0  0  0  0  0  0  0  0  0
   -0.7003  -12.6546   -3.3566 C   0  0  0  0  0  0  0  0  0  0  0  0
    2.1179  -14.0691   -6.1530 C   0  0  0  0  0  0  0  0  0  0  0  0
    1.1980  -11.4824   -6.2352 O   0  0  0  0  0  3  0  0  0  0  0  0
    4.0883   -7.5219   -8.3631 O   0  0  0  0  0  0  0  0  0  0  0  0
    3.8221   -8.1482  -11.1039 O   0  0  0  0  0  0  0  0  0  0  0  0
    2.5582  -15.2506   -6.1286 O   0  0  0  0  0  0  0  0  0  0  0  0
   -1.6306  -12.1767   -2.4350 O   0  0  0  0  0  0  0  0  0  0  0  0
   -0.6294  -10.4791   -4.4520 O   0  0  0  0  0  0  0  0  0  0  0  0
    3.3248  -13.5179   -7.8370 H   0  0  0  0  0  0  0  0  0  0  0  0
    3.2443   -9.3889   -6.7539 H   0  0  0  0  0  0  0  0  0  0  0  0
    2.7472  -10.5389  -11.5519 H   0  0  0  0  0  0  0  0  0  0  0  0
    1.9970  -12.1352   -9.8488 H   0  0  0  0  0  0  0  0  0  0  0  0
    1.0000  -15.4994   -4.1237 H   0  0  0  0  0  0  0  0  0  0  0  0
   -0.6376  -14.6406   -2.5125 H   0  0  0  0  0  0  0  0  0  0  0  0
    4.4144   -6.8304   -9.0276 H   0  0  0  0  0  0  0  0  0  0  0  0
    3.7388   -8.3555  -12.0923 H   0  0  0  0  0  0  0  0  0  0  0  0
   -2.0040  -12.7684   -1.7019 H   0  0  0  0  0  0  0  0  0  0  0  0
   -1.3031  -10.0837   -3.8073 H   0  0  0  0  0  0  0  0  0  0  0  0
  2  3  4  0
  3  4  1  0
  4  5  4  0
  5  6  4  0
  6  7  4  0
  7  8  4  0
  8  9  4  0
  4  9  4  0
  1 10  4  0
 10 11  4  0
 11 12  4  0
 12 13  4  0
  1 14  4  0
 13 14  4  0
  2 15  4  0
 11 15  4  0
  3 16  4  0
 10 16  4  0
  6 17  1  0
  7 18  1  0
 15 19  2  0
 14 20  1  0
  1 21  1  0
  2 22  1  0
  5 23  1  0
  8 24  1  0
  9 25  1  0
 12 26  1  0
 13 27  1  0
 17 28  1  0
 18 29  1  0
 20 30  1  0
 21 31  1  0
M  CHG  1  16   1
M  END
