7RSV_7IQ_B_901
     RDKit          3D

 40 43  0  0  0  0  0  0  0  0999 V2000
    9.4231  -40.5615   12.3549 C   0  0  2  0  0  0  0  0  0  0  0  0
    7.1679  -33.9955    9.9611 C   0  0  2  0  0  0  0  0  0  0  0  0
    7.2466  -40.5677   11.5903 C   0  0  1  0  0  0  0  0  0  0  0  0
    9.1300  -34.9690   11.1477 C   0  0  0  0  0  0  0  0  0  0  0  0
    7.4016  -39.2616   10.8066 C   0  0  1  0  0  0  0  0  0  0  0  0
    8.5966  -37.0731   11.1040 C   0  0  0  0  0  0  0  0  0  0  0  0
    9.5728  -36.2012   11.5754 C   0  0  0  0  0  0  0  0  0  0  0  0
   10.6364  -39.5088   10.3945 C   0  0  1  0  0  0  0  0  0  0  0  0
    6.6645  -34.2818    8.5502 C   0  0  1  0  0  0  0  0  0  0  0  0
    7.7548  -33.7828    7.6098 C   0  0  2  0  0  0  0  0  0  0  0  0
    8.5770  -32.7537    8.3863 C   0  0  1  0  0  0  0  0  0  0  0  0
    7.9909  -32.6964    9.7977 C   0  0  2  0  0  0  0  0  0  0  0  0
    9.7905  -39.2452   11.6459 C   0  0  1  0  0  0  0  0  0  0  0  0
    9.7093  -33.6571   11.3845 C   0  0  0  0  0  0  0  0  0  0  0  0
    7.9892  -35.1094   10.4604 N   0  0  0  0  0  0  0  0  0  0  0  0
    7.6377  -36.3852   10.4444 N   0  0  0  0  0  0  0  0  0  0  0  0
    9.0503  -32.5291   10.8054 N   0  0  0  0  0  0  0  0  0  0  0  0
    8.5681  -38.5057   11.2848 N   0  0  0  0  0  0  0  0  0  0  0  0
   10.7453  -33.5117   12.0860 O   0  0  0  0  0  0  0  0  0  0  0  0
    8.4621  -41.2877   11.6150 O   0  0  0  0  0  0  0  0  0  0  0  0
    9.0587  -40.3522   13.3872 H   0  0  0  0  0  0  0  0  0  0  0  0
   10.3317  -41.1903   12.4700 H   0  0  0  0  0  0  0  0  0  0  0  0
    6.3160  -33.8330   10.6575 H   0  0  0  0  0  0  0  0  0  0  0  0
    6.8760  -40.3625   12.6210 H   0  0  0  0  0  0  0  0  0  0  0  0
    6.4770  -41.1925   11.0900 H   0  0  0  0  0  0  0  0  0  0  0  0
    7.5319  -39.4884    9.7264 H   0  0  0  0  0  0  0  0  0  0  0  0
    6.4688  -38.6705   10.9322 H   0  0  0  0  0  0  0  0  0  0  0  0
   10.4638  -36.4172   12.1486 H   0  0  0  0  0  0  0  0  0  0  0  0
   10.1134  -40.2076    9.7076 H   0  0  0  0  0  0  0  0  0  0  0  0
   10.8271  -38.5570    9.8556 H   0  0  0  0  0  0  0  0  0  0  0  0
   11.6160  -39.9483   10.6791 H   0  0  0  0  0  0  0  0  0  0  0  0
    6.4398  -35.3566    8.3797 H   0  0  0  0  0  0  0  0  0  0  0  0
    5.7337  -33.6987    8.3722 H   0  0  0  0  0  0  0  0  0  0  0  0
    7.3089  -33.3319    6.6966 H   0  0  0  0  0  0  0  0  0  0  0  0
    8.4047  -34.6339    7.3083 H   0  0  0  0  0  0  0  0  0  0  0  0
    9.6428  -33.0727    8.4110 H   0  0  0  0  0  0  0  0  0  0  0  0
    8.5180  -31.7545    7.9019 H   0  0  0  0  0  0  0  0  0  0  0  0
    7.2945  -31.8300    9.8616 H   0  0  0  0  0  0  0  0  0  0  0  0
   10.3964  -38.6534   12.3648 H   0  0  0  0  0  0  0  0  0  0  0  0
    9.4388  -31.5736   10.9724 H   0  0  0  0  0  0  0  0  0  0  0  0
  3  5  1  0
  4  7  2  0
  6  7  1  0
  2  9  1  0
  9 10  1  0
 10 11  1  0
 12 11  1  0
  2 12  1  0
 13  8  1  0
  1 13  1  0
  4 14  1  0
  2 15  1  0
  4 15  1  0
 15 16  1  0
  6 16  2  0
 12 17  1  0
 14 17  1  0
  6 18  1  0
  5 18  1  0
 13 18  1  0
 14 19  2  0
  3 20  1  0
  1 20  1  0
  1 21  1  1
  1 22  1  0
  2 23  1  1
  3 24  1  1
  3 25  1  0
  5 26  1  6
  5 27  1  0
  7 28  1  0
  8 29  1  6
  8 30  1  0
  8 31  1  0
  9 32  1  1
  9 33  1  0
 10 34  1  6
 10 35  1  0
 11 36  1  1
 11 37  1  0
 12 38  1  6
 13 39  1  1
 17 40  1  0
M  END
