
     RDKit          3D

 16 16  0  0  0  0  0  0  0  0999 V2000
   25.2076   70.4499    6.8254 C   0  0  0  0  0  0  0  0  0  0  0  0
   26.1575   69.5098    6.6680 C   0  0  0  0  0  0  0  0  0  0  0  0
   26.3437   68.3393    7.5855 C   0  0  2  0  0  0  0  0  0  0  0  0
   25.1707   68.1380    8.5773 C   0  0  2  0  0  0  0  0  0  0  0  0
   24.6247   69.4765    9.1019 C   0  0  2  0  0  0  0  0  0  0  0  0
   24.2407   70.4459    7.9805 C   0  0  0  0  0  0  0  0  0  0  0  0
   25.0537   71.5748    5.8732 C   0  0  0  0  0  0  0  0  0  0  0  0
   27.5299   68.5944    8.3230 O   0  0  0  0  0  0  0  0  0  0  0  0
   25.6001   67.3445    9.7112 O   0  0  0  0  0  0  0  0  0  0  0  0
   25.5929   70.0599    9.9885 O   0  0  0  0  0  0  0  0  0  0  0  0
   24.4732   72.6591    6.4094 O   0  0  0  0  0  0  0  0  0  0  0  0
   25.4141   71.5614    4.7099 O   0  0  0  0  0  0  0  0  0  0  0  0
   28.8868   67.8851    7.8481 P   0  0  0  0  0  5  0  0  0  0  0  0
   28.9843   67.5725    6.3971 O   0  0  0  0  0  0  0  0  0  0  0  0
   30.0797   68.7648    8.4364 O   0  0  0  0  0  0  0  0  0  0  0  0
   28.9506   66.5924    8.7854 O   0  0  0  0  0  0  0  0  0  0  0  0
  1  2  2  0
  2  3  1  0
  3  4  1  0
  4  5  1  0
  1  6  1  0
  5  6  1  0
  1  7  1  0
  3  8  1  1
  4  9  1  1
  5 10  1  1
  7 11  1  0
  7 12  2  0
  8 13  1  0
 13 14  2  0
 13 15  1  0
 13 16  1  0
M  END
