@<TRIPOS>MOLECULE
1YGC_905_H_1
 66 68 0 0 0
SMALL
GASTEIGER

@<TRIPOS>ATOM
      1 O          -6.3413    1.7807    1.4873 O.3     1  UNL1       -0.5058
      2 C          -5.0713    1.5122    1.9986 C.ar    1  UNL1        0.1334
      3 C          -4.0221    1.2067    1.1193 C.ar    1  UNL1        0.0016
      4 C          -2.7386    0.9107    1.6012 C.ar    1  UNL1        0.0314
      5 N          -1.6896    0.5988    0.6612 N.pl3   1  UNL1       -0.3292
      6 C          -0.2902    0.3479    1.0367 C.3     1  UNL1        0.1274
      7 C          -0.1319   -1.0083    1.6736 C.2     1  UNL1        0.2569
      8 O          -1.0334   -1.8812    1.5442 O.2     1  UNL1       -0.2718
      9 N           1.0851   -1.3316    2.3527 N.am    1  UNL1       -0.1837
     10 S           1.6155   -2.9733    2.4832 S.O2    1  UNL1        0.0745
     11 O           0.6812   -3.7336    3.3832 O.2     1  UNL1       -0.1499
     12 O           2.9955   -3.0113    3.0769 O.2     1  UNL1       -0.1499
     13 C           1.6583   -3.6834    0.8726 C.ar    1  UNL1        0.1103
     14 C           2.5993   -3.2271   -0.0615 C.ar    1  UNL1       -0.0350
     15 C           2.6204   -3.7583   -1.3537 C.ar    1  UNL1       -0.0582
     16 C           1.6970   -4.7413   -1.7221 C.ar    1  UNL1       -0.0409
     17 C           0.7439   -5.1943   -0.8001 C.ar    1  UNL1        0.0264
     18 N          -0.2091   -6.1905   -1.1810 N.pl3   1  UNL1       -0.3579
     19 C           0.7258   -4.6606    0.4972 C.ar    1  UNL1       -0.0144
     20 C           0.6103    0.4418   -0.1832 C.ar    1  UNL1        0.0239
     21 C           1.5467    1.4852   -0.3126 C.ar    1  UNL1        0.1704
     22 F           1.6559    2.4375    0.6496 F       1  UNL1       -0.2013
     23 C           2.3815    1.5600   -1.4345 C.ar    1  UNL1        0.1593
     24 O           3.2948    2.6226   -1.5123 O.3     1  UNL1       -0.4892
     25 C           4.1924    2.8411   -2.5977 C.3     1  UNL1        0.0869
     26 C           5.0148    4.0920   -2.3319 C.3     1  UNL1       -0.0307
     27 C           2.2818    0.5807   -2.4401 C.ar    1  UNL1        0.0247
     28 C           1.3447   -0.4613   -2.3291 C.ar    1  UNL1        0.1245
     29 O           1.2058   -1.4573   -3.3078 O.3     1  UNL1       -0.4921
     30 C           1.9848   -1.5316   -4.4987 C.3     1  UNL1        0.0868
     31 C           1.5516   -2.7385   -5.3145 C.3     1  UNL1       -0.0307
     32 C           0.5147   -0.5185   -1.2071 C.ar    1  UNL1       -0.0115
     33 C          -2.5171    0.9228    2.9895 C.ar    1  UNL1       -0.0398
     34 C          -3.5560    1.2313    3.8708 C.ar    1  UNL1       -0.0416
     35 C          -4.8425    1.5292    3.3910 C.ar    1  UNL1        0.1061
     36 C          -5.9273    1.8620    4.3488 C.2     1  UNL1        0.3117
     37 N          -6.8355    2.7265    4.0206 N.2     1  UNL1       -0.0993
     38 N          -5.9749    1.2413    5.6394 N.pl3   1  UNL1       -0.2465
     39 H          -6.5293    1.7648    0.4910 H       1  UNL1        0.2922
     40 H          -4.2093    1.1970    0.0527 H       1  UNL1        0.0673
     41 H          -1.9506    0.5342   -0.3495 H       1  UNL1        0.1471
     42 H           0.0186    1.1129    1.7803 H       1  UNL1        0.0646
     43 H           1.7642   -0.5728    2.5820 H       1  UNL1        0.1766
     44 H           3.3094   -2.4558    0.2097 H       1  UNL1        0.0637
     45 H           3.3474   -3.4030   -2.0722 H       1  UNL1        0.0619
     46 H           1.7221   -5.1466   -2.7255 H       1  UNL1        0.0636
     47 H          -0.9240   -6.5356   -0.5016 H       1  UNL1        0.1423
     48 H          -0.2111   -6.5861   -2.1477 H       1  UNL1        0.1423
     49 H          -0.0186   -5.0019    1.2064 H       1  UNL1        0.0655
     50 H           4.8763    1.9710   -2.7020 H       1  UNL1        0.0694
     51 H           3.6177    2.9769   -3.5394 H       1  UNL1        0.0694
     52 H           5.7084    4.2734   -3.1803 H       1  UNL1        0.0262
     53 H           4.3434    4.9701   -2.2203 H       1  UNL1        0.0262
     54 H           5.6080    3.9643   -1.4015 H       1  UNL1        0.0262
     55 H           2.9267    0.6313   -3.3044 H       1  UNL1        0.0692
     56 H           1.8350   -0.6113   -5.1043 H       1  UNL1        0.0694
     57 H           3.0609   -1.6362   -4.2394 H       1  UNL1        0.0694
     58 H           0.4707   -2.6641   -5.5613 H       1  UNL1        0.0262
     59 H           2.1353   -2.7818   -6.2584 H       1  UNL1        0.0262
     60 H           1.7294   -3.6707   -4.7385 H       1  UNL1        0.0262
     61 H          -0.2054   -1.3240   -1.1302 H       1  UNL1        0.0658
     62 H          -1.5464    0.6942    3.4059 H       1  UNL1        0.0636
     63 H          -3.3421    1.2571    4.9319 H       1  UNL1        0.0628
     64 H          -7.6111    2.9847    4.6706 H       1  UNL1        0.3633
     65 H          -6.7085    1.5094    6.3317 H       1  UNL1        0.2884
     66 H          -5.3248    0.4645    5.8904 H       1  UNL1        0.2884
@<TRIPOS>BOND
     1     1     2    1
     2     2     3   ar
     3     3     4   ar
     4     4     5    1
     5     6     5    1
     6     6     7    1
     7     7     8    2
     8     7     9   am
     9     9    10    1
    10    10    11    2
    11    10    12    2
    12    10    13    1
    13    13    14   ar
    14    14    15   ar
    15    15    16   ar
    16    16    17   ar
    17    17    18    1
    18    13    19   ar
    19    17    19   ar
    20     6    20    1
    21    20    21   ar
    22    21    22    1
    23    21    23   ar
    24    23    24    1
    25    24    25    1
    26    25    26    1
    27    23    27   ar
    28    27    28   ar
    29    28    29    1
    30    29    30    1
    31    30    31    1
    32    20    32   ar
    33    28    32   ar
    34     4    33   ar
    35    33    34   ar
    36     2    35   ar
    37    34    35   ar
    38    35    36    1
    39    36    37    2
    40    36    38    1
    41     1    39    1
    42     3    40    1
    43     5    41    1
    44     6    42    1
    45     9    43    1
    46    14    44    1
    47    15    45    1
    48    16    46    1
    49    18    47    1
    50    18    48    1
    51    19    49    1
    52    25    50    1
    53    25    51    1
    54    26    52    1
    55    26    53    1
    56    26    54    1
    57    27    55    1
    58    30    56    1
    59    30    57    1
    60    31    58    1
    61    31    59    1
    62    31    60    1
    63    32    61    1
    64    33    62    1
    65    34    63    1
    66    37    64    1
    67    38    65    1
    68    38    66    1
