1YGC_905_H_1
     RDKit          3D

 66 68  0  0  0  0  0  0  0  0999 V2000
   11.5270   38.6887   27.4868 O   0  0  0  0  0  0  0  0  0  0  0  0
   12.0122   38.6567   28.8939 C   0  0  0  0  0  0  0  0  0  0  0  0
   11.2011   39.1770   29.9214 C   0  0  0  0  0  0  0  0  0  0  0  0
   11.6552   39.1510   31.2671 C   0  0  0  0  0  0  0  0  0  0  0  0
   10.8081   39.6998   32.3048 N   0  0  0  0  0  0  0  0  0  0  0  0
   11.1411   41.0002   32.9004 C   0  0  1  0  0  0  0  0  0  0  0  0
   10.3094   42.1089   32.3306 C   0  0  0  0  0  0  0  0  0  0  0  0
   10.5969   42.6594   31.2596 O   0  0  0  0  0  0  0  0  0  0  0  0
    9.2471   42.4641   33.0343 N   0  0  0  0  0  0  0  0  0  0  0  0
    8.8916   41.8507   34.5470 S   0  0  2  0  0  6  0  0  0  0  0  0
    9.1334   40.4377   34.5552 O   0  0  0  0  0  0  0  0  0  0  0  0
    7.5403   42.1601   34.8901 O   0  0  0  0  0  0  0  0  0  0  0  0
    9.9857   42.6595   35.6247 C   0  0  0  0  0  0  0  0  0  0  0  0
   11.0806   41.9743   36.2182 C   0  0  0  0  0  0  0  0  0  0  0  0
   11.9543   42.6895   37.1030 C   0  0  0  0  0  0  0  0  0  0  0  0
   11.7224   44.0730   37.3792 C   0  0  0  0  0  0  0  0  0  0  0  0
   10.6230   44.7509   36.7764 C   0  0  0  0  0  0  0  0  0  0  0  0
   10.4027   46.0451   37.0307 N   0  0  0  0  0  0  0  0  0  0  0  0
    9.7584   44.0449   35.9030 C   0  0  0  0  0  0  0  0  0  0  0  0
   10.7497   40.9268   34.4060 C   0  0  0  0  0  0  0  0  0  0  0  0
    9.3895   40.7685   34.7775 C   0  0  0  0  0  0  0  0  0  0  0  0
    8.4314   40.6755   33.8432 F   0  0  0  0  0  0  0  0  0  0  0  0
    9.0324   40.7065   36.1302 C   0  0  0  0  0  0  0  0  0  0  0  0
    7.6092   40.5535   36.4943 O   0  0  0  0  0  0  0  0  0  0  0  0
    7.2162   41.5854   37.5935 C   0  0  0  0  0  0  0  0  0  0  0  0
    8.3738   41.7165   38.5835 C   0  0  0  0  0  0  0  0  0  0  0  0
   10.0178   40.8018   37.1369 C   0  0  0  0  0  0  0  0  0  0  0  0
   11.3745   40.9576   36.7954 C   0  0  0  0  0  0  0  0  0  0  0  0
   12.3521   41.0574   37.9087 O   0  0  0  0  0  0  0  0  0  0  0  0
   12.1971   42.3459   38.7339 C   0  0  0  0  0  0  0  0  0  0  0  0
   12.1526   43.5085   37.7472 C   0  0  0  0  0  0  0  0  0  0  0  0
   11.7604   41.0253   35.4235 C   0  0  0  0  0  0  0  0  0  0  0  0
   12.9206   38.6037   31.5845 C   0  0  0  0  0  0  0  0  0  0  0  0
   13.7419   38.0830   30.5523 C   0  0  0  0  0  0  0  0  0  0  0  0
   13.2980   38.1075   29.2092 C   0  0  0  0  0  0  0  0  0  0  0  0
   14.1611   37.5626   28.1473 C   0  0  0  0  0  0  0  0  0  0  0  0
   13.9265   37.8687   26.8734 N   0  0  0  0  0  0  0  0  0  0  0  0
   15.1718   36.7674   28.4607 N   0  0  0  0  0  0  0  0  0  0  0  0
   10.6851   39.0496   27.2897 H   0  0  0  0  0  0  0  0  0  0  0  0
   10.2767   39.5770   29.6964 H   0  0  0  0  0  0  0  0  0  0  0  0
   10.0138   39.2043   32.6094 H   0  0  0  0  0  0  0  0  0  0  0  0
   12.1777   41.1936   32.7188 H   0  0  0  0  0  0  0  0  0  0  0  0
    8.6318   43.1268   32.6449 H   0  0  0  0  0  0  0  0  0  0  0  0
   11.2447   40.9758   36.0154 H   0  0  0  0  0  0  0  0  0  0  0  0
   12.7525   42.2040   37.5413 H   0  0  0  0  0  0  0  0  0  0  0  0
   12.3533   44.5827   38.0174 H   0  0  0  0  0  0  0  0  0  0  0  0
   11.0026   46.5366   37.6372 H   0  0  0  0  0  0  0  0  0  0  0  0
    9.6408   46.5064   36.6114 H   0  0  0  0  0  0  0  0  0  0  0  0
    8.9609   44.5324   35.4654 H   0  0  0  0  0  0  0  0  0  0  0  0
    6.3403   41.2475   38.1071 H   0  0  0  0  0  0  0  0  0  0  0  0
    7.0129   42.5350   37.1443 H   0  0  0  0  0  0  0  0  0  0  0  0
    8.5718   40.7639   39.0289 H   0  0  0  0  0  0  0  0  0  0  0  0
    8.1126   42.4197   39.3466 H   0  0  0  0  0  0  0  0  0  0  0  0
    9.2471   42.0576   38.0680 H   0  0  0  0  0  0  0  0  0  0  0  0
    9.7415   40.7570   38.1302 H   0  0  0  0  0  0  0  0  0  0  0  0
   13.0290   42.4592   39.3972 H   0  0  0  0  0  0  0  0  0  0  0  0
   11.3059   42.3142   39.3252 H   0  0  0  0  0  0  0  0  0  0  0  0
   13.0525   43.5196   37.1684 H   0  0  0  0  0  0  0  0  0  0  0  0
   12.0630   44.4292   38.2848 H   0  0  0  0  0  0  0  0  0  0  0  0
   11.3113   43.3920   37.0965 H   0  0  0  0  0  0  0  0  0  0  0  0
   12.7525   41.1434   35.1649 H   0  0  0  0  0  0  0  0  0  0  0  0
   13.2449   38.5834   32.5640 H   0  0  0  0  0  0  0  0  0  0  0  0
   14.6661   37.6851   30.7815 H   0  0  0  0  0  0  0  0  0  0  0  0
   13.1749   38.4601   26.6397 H   0  0  0  0  0  0  0  0  0  0  0  0
   15.3458   36.5406   29.4029 H   0  0  0  0  0  0  0  0  0  0  0  0
   15.7494   36.4027   27.7518 H   0  0  0  0  0  0  0  0  0  0  0  0
  1  2  1  0
  2  3  2  0
  3  4  1  0
  4  5  1  0
  6  5  1  0
  6  7  1  0
  7  8  2  0
  7  9  1  0
 10  9  1  6
 10 11  2  0
 10 12  2  0
 10 13  1  0
 13 14  2  0
 14 15  1  0
 15 16  2  0
 16 17  1  0
 17 18  1  0
 13 19  1  0
 17 19  2  0
  6 20  1  0
 20 21  2  0
 21 22  1  0
 21 23  1  0
 23 24  1  0
 24 25  1  0
 25 26  1  0
 23 27  2  0
 27 28  1  0
 28 29  1  0
 29 30  1  0
 30 31  1  0
 20 32  1  0
 28 32  2  0
  4 33  2  0
 33 34  1  0
  2 35  1  0
 34 35  2  0
 35 36  1  0
 36 37  2  3
 36 38  1  0
  1 39  1  0
  3 40  1  0
  5 41  1  0
  6 42  1  1
  9 43  1  0
 14 44  1  0
 15 45  1  0
 16 46  1  0
 18 47  1  0
 18 48  1  0
 19 49  1  0
 25 50  1  0
 25 51  1  0
 26 52  1  0
 26 53  1  0
 26 54  1  0
 27 55  1  0
 30 56  1  0
 30 57  1  0
 31 58  1  0
 31 59  1  0
 31 60  1  0
 32 61  1  0
 33 62  1  0
 34 63  1  0
 37 64  1  0
 38 65  1  0
 38 66  1  0
M  END
