7RC3_SAH_A_405
     RDKit          3D

 46 48  0  0  0  0  0  0  0  0999 V2000
  -47.1008   19.9092    6.3517 N   0  0  0  0  0  0  0  0  0  0  0  0
  -47.2560   20.2688    7.7652 C   0  0  1  0  0  0  0  0  0  0  0  0
  -47.5699   19.0442    8.6561 C   0  0  1  0  0  0  0  0  0  0  0  0
  -47.1801   17.6954    8.0339 C   0  0  1  0  0  0  0  0  0  0  0  0
  -48.6146   16.5592    8.0223 S   0  0  0  0  0  0  0  0  0  0  0  0
  -46.0594   21.0333    8.2671 C   0  0  0  0  0  0  0  0  0  0  0  0
  -45.7716   21.0491    9.4948 O   0  0  0  0  0  0  0  0  0  0  0  0
  -45.2891   21.7654    7.3690 O   0  0  0  0  0  0  0  0  0  0  0  0
  -47.9016   15.2797    9.1222 C   0  0  2  0  0  0  0  0  0  0  0  0
  -47.5120   14.0284    8.3249 C   0  0  1  0  0  0  0  0  0  0  0  0
  -46.4837   14.3310    7.4064 O   0  0  0  0  0  0  0  0  0  0  0  0
  -47.0193   12.9080    9.2421 C   0  0  1  0  0  0  0  0  0  0  0  0
  -48.0515   12.0932    9.7484 O   0  0  0  0  0  0  0  0  0  0  0  0
  -46.0380   12.1643    8.3660 C   0  0  1  0  0  0  0  0  0  0  0  0
  -46.6351   11.0867    7.6809 O   0  0  0  0  0  0  0  0  0  0  0  0
  -45.5656   13.2546    7.3949 C   0  0  2  0  0  0  0  0  0  0  0  0
  -44.2378   13.7419    7.7774 N   0  0  0  0  0  0  0  0  0  0  0  0
  -43.9269   14.7031    8.6869 C   0  0  0  0  0  0  0  0  0  0  0  0
  -42.5868   14.8590    8.8723 N   0  0  0  0  0  0  0  0  0  0  0  0
  -42.0638   13.9386    8.0406 C   0  0  0  0  0  0  0  0  0  0  0  0
  -40.7328   13.6113    7.8088 C   0  0  0  0  0  0  0  0  0  0  0  0
  -39.6649   14.2903    8.4696 N   0  0  0  0  0  0  0  0  0  0  0  0
  -40.4740   12.6042    6.9217 N   0  0  0  0  0  0  0  0  0  0  0  0
  -41.4881   11.9361    6.2826 C   0  0  0  0  0  0  0  0  0  0  0  0
  -42.7938   12.2657    6.5198 N   0  0  0  0  0  0  0  0  0  0  0  0
  -43.0457   13.2685    7.3957 C   0  0  0  0  0  0  0  0  0  0  0  0
  -47.3149   18.8962    6.2090 H   0  0  0  0  0  0  0  0  0  0  0  0
  -47.7868   20.4594    5.7853 H   0  0  0  0  0  0  0  0  0  0  0  0
  -48.1280   20.9557    7.8383 H   0  0  0  0  0  0  0  0  0  0  0  0
  -47.0397   19.1715    9.6245 H   0  0  0  0  0  0  0  0  0  0  0  0
  -48.6582   19.0320    8.8837 H   0  0  0  0  0  0  0  0  0  0  0  0
  -46.8752   17.8467    6.9782 H   0  0  0  0  0  0  0  0  0  0  0  0
  -46.3272   17.2389    8.5749 H   0  0  0  0  0  0  0  0  0  0  0  0
  -44.3068   21.9375    7.5466 H   0  0  0  0  0  0  0  0  0  0  0  0
  -48.6807   15.0046    9.8644 H   0  0  0  0  0  0  0  0  0  0  0  0
  -47.0293   15.6732    9.6845 H   0  0  0  0  0  0  0  0  0  0  0  0
  -48.3990   13.6894    7.7443 H   0  0  0  0  0  0  0  0  0  0  0  0
  -46.4582   13.3384   10.1022 H   0  0  0  0  0  0  0  0  0  0  0  0
  -48.7370   11.9686    9.0425 H   0  0  0  0  0  0  0  0  0  0  0  0
  -45.1983   11.7658    8.9778 H   0  0  0  0  0  0  0  0  0  0  0  0
  -47.6170   11.2363    7.6578 H   0  0  0  0  0  0  0  0  0  0  0  0
  -45.5148   12.8516    6.3590 H   0  0  0  0  0  0  0  0  0  0  0  0
  -44.6656   15.2827    9.2231 H   0  0  0  0  0  0  0  0  0  0  0  0
  -38.7325   13.8310    8.5677 H   0  0  0  0  0  0  0  0  0  0  0  0
  -39.7979   15.2493    8.8609 H   0  0  0  0  0  0  0  0  0  0  0  0
  -41.2530   11.1422    5.5874 H   0  0  0  0  0  0  0  0  0  0  0  0
  2  1  1  0
  2  3  1  0
  3  4  1  0
  4  5  1  0
  2  6  1  0
  6  7  2  0
  6  8  1  0
  5  9  1  0
 10  9  1  0
 10 11  1  0
 10 12  1  0
 12 13  1  0
 12 14  1  0
 14 15  1  0
 11 16  1  0
 14 16  1  0
 16 17  1  0
 17 18  1  0
 18 19  2  0
 19 20  1  0
 20 21  2  0
 21 22  1  0
 21 23  1  0
 23 24  2  0
 24 25  1  0
 17 26  1  0
 20 26  1  0
 25 26  2  0
  1 27  1  0
  1 28  1  0
  2 29  1  6
  3 30  1  1
  3 31  1  0
  4 32  1  6
  4 33  1  0
  8 34  1  0
  9 35  1  1
  9 36  1  0
 10 37  1  6
 12 38  1  1
 13 39  1  0
 14 40  1  1
 15 41  1  0
 16 42  1  6
 18 43  1  0
 22 44  1  0
 22 45  1  0
 24 46  1  0
M  END
