8CI0_8EL_CCC_1002
     RDKit          3D

 46 47  0  0  0  0  0  0  0  0999 V2000
   -6.8396   68.9944   30.4904 C   0  0  0  0  0  0  0  0  0  0  0  0
   -6.3663   67.6884   30.2180 C   0  0  0  0  0  0  0  0  0  0  0  0
   -5.0586   67.5662   29.7228 C   0  0  0  0  0  0  0  0  0  0  0  0
   -4.2724   68.6603   29.5710 N   0  0  0  0  0  0  0  0  0  0  0  0
   -6.0060   70.0552   30.3173 N   0  0  0  0  0  0  0  0  0  0  0  0
   -4.7289   69.8975   29.8856 C   0  0  0  0  0  0  0  0  0  0  0  0
   -4.9629   64.2790   30.3293 C   0  0  1  0  0  0  0  0  0  0  0  0
   -3.8482   71.0872   29.6966 C   0  0  1  0  0  0  0  0  0  0  0  0
   -4.3150   62.1533   29.0311 C   0  0  1  0  0  0  0  0  0  0  0  0
   -5.4176   62.3664   27.9911 C   0  0  2  0  0  0  0  0  0  0  0  0
   -8.0459   65.3671   28.3214 C   0  0  2  0  0  0  0  0  0  0  0  0
   -7.1815   66.4379   30.4709 C   0  0  2  0  0  0  0  0  0  0  0  0
   -6.0243   64.4657   29.2760 C   0  0  0  0  0  0  0  0  0  0  0  0
   -6.1739   63.6510   28.2298 C   0  0  0  0  0  0  0  0  0  0  0  0
   -8.1814   69.2503   30.9195 N   0  0  0  0  0  0  0  0  0  0  0  0
   -7.0357   65.4765   29.3673 N   0  0  0  0  0  0  0  0  0  0  0  0
   -7.7315   63.2965   29.3423 O   0  0  0  0  0  0  0  0  0  0  0  0
   -5.7662   64.7507   28.4388 O   0  0  0  0  0  0  0  0  0  0  0  0
   -5.9626   61.4654   29.9787 O   0  0  0  0  0  0  0  0  0  0  0  0
   -7.8278   62.3754   31.7824 O   0  0  0  0  0  0  0  0  0  0  0  0
   -4.1276   66.0264   30.0182 O   0  0  0  0  0  0  0  0  0  0  0  0
   -3.6830   63.3843   29.3060 O   0  0  0  0  0  0  0  0  0  0  0  0
   -5.8106   64.0699   30.9857 O   0  0  0  0  0  0  0  0  0  0  0  0
   -6.8489   62.8194   30.4750 P   0  0  2  0  0  5  0  0  0  0  0  0
   -4.8765   64.5536   29.6461 P   0  0  2  0  0  5  0  0  0  0  0  0
   -7.4574   64.1569   27.0955 S   0  0  0  0  0  0  0  0  0  0  0  0
   -4.6607   66.5986   29.4499 H   0  0  0  0  0  0  0  0  0  0  0  0
   -5.4332   64.2587   31.3338 H   0  0  0  0  0  0  0  0  0  0  0  0
   -4.3982   63.3376   30.1781 H   0  0  0  0  0  0  0  0  0  0  0  0
   -4.2156   65.0950   30.2852 H   0  0  0  0  0  0  0  0  0  0  0  0
   -2.8813   70.9278   30.2181 H   0  0  0  0  0  0  0  0  0  0  0  0
   -3.6594   71.2395   28.6142 H   0  0  0  0  0  0  0  0  0  0  0  0
   -4.3313   71.9968   30.1142 H   0  0  0  0  0  0  0  0  0  0  0  0
   -4.7787   61.7611   29.9627 H   0  0  0  0  0  0  0  0  0  0  0  0
   -3.6139   61.3816   28.6446 H   0  0  0  0  0  0  0  0  0  0  0  0
   -6.1264   61.5133   28.0554 H   0  0  0  0  0  0  0  0  0  0  0  0
   -4.9893   62.3502   26.9672 H   0  0  0  0  0  0  0  0  0  0  0  0
   -8.2074   66.3514   27.8324 H   0  0  0  0  0  0  0  0  0  0  0  0
   -8.9954   64.9899   28.7505 H   0  0  0  0  0  0  0  0  0  0  0  0
   -8.2522   66.6883   30.6191 H   0  0  0  0  0  0  0  0  0  0  0  0
   -6.8827   65.9673   31.4291 H   0  0  0  0  0  0  0  0  0  0  0  0
   -8.3903   70.1099   31.4736 H   0  0  0  0  0  0  0  0  0  0  0  0
   -8.9862   68.6396   30.6649 H   0  0  0  0  0  0  0  0  0  0  0  0
   -6.0274   61.4683   28.9915 H   0  0  0  0  0  0  0  0  0  0  0  0
   -8.6748   62.0657   31.3731 H   0  0  0  0  0  0  0  0  0  0  0  0
   -4.5554   66.3218   30.8619 H   0  0  0  0  0  0  0  0  0  0  0  0
  1  2  2  0
  2  3  1  0
  3  4  2  0
  1  5  1  0
  5  6  2  0
  4  6  1  0
  6  8  1  0
  9 10  1  0
  2 12  1  0
  7 13  1  0
 10 14  1  0
 13 14  2  0
  1 15  1  0
 11 16  1  0
 12 16  1  0
 13 16  1  0
  9 22  1  0
 17 24  2  0
 24 20  1  1
 23 24  1  0
 19 24  1  0
 18 25  2  0
 25 23  1  1
 25 21  1  0
 22 25  1  0
 11 26  1  0
 14 26  1  0
  3 27  1  0
  7 28  1  1
  7 29  1  0
  7 30  1  0
  8 31  1  1
  8 32  1  0
  8 33  1  0
  9 34  1  1
  9 35  1  0
 10 36  1  6
 10 37  1  0
 11 38  1  6
 11 39  1  0
 12 40  1  1
 12 41  1  0
 15 42  1  0
 15 43  1  0
 19 44  1  0
 20 45  1  0
 21 46  1  0
M  END
