7UJ5_DGL_D_301
     RDKit          3D

 10  9  0  0  0  0  0  0  0  0999 V2000
  -16.6572    2.9710  -24.9818 N   0  0  0  0  0  0  0  0  0  0  0  0
  -18.1044    2.7819  -25.0741 C   0  0  1  0  0  0  0  0  0  0  0  0
  -18.2777    1.5257  -25.8800 C   0  0  0  0  0  0  0  0  0  0  0  0
  -19.1087    1.5390  -26.8492 O   0  0  0  0  0  0  0  0  0  0  0  0
  -18.7154    2.6406  -23.7079 C   0  0  0  0  0  0  0  0  0  0  0  0
  -20.2201    2.6265  -23.7698 C   0  0  0  0  0  0  0  0  0  0  0  0
  -20.8654    2.4871  -22.4473 C   0  0  0  0  0  0  0  0  0  0  0  0
  -21.9690    1.8780  -22.4093 O   0  0  0  0  0  0  0  0  0  0  0  0
  -20.3640    2.9611  -21.2642 O   0  0  0  0  0  0  0  0  0  0  0  0
  -17.6046    0.3645  -25.6457 O   0  0  0  0  0  0  0  0  0  0  0  0
  2  1  1  1
  2  3  1  0
  3  4  2  0
  2  5  1  0
  5  6  1  1
  6  7  1  1
  7  8  2  0
  7  9  1  0
  3 10  1  0
M  END
$$$$
