8FAV_4Y5_B_602
     RDKit          3D

 43 46  0  0  0  0  0  0  0  0999 V2000
    4.9560   -5.8635    4.6161 C   0  0  0  0  0  0  0  0  0  0  0  0
    3.6388   -6.2924    4.8581 C   0  0  0  0  0  0  0  0  0  0  0  0
    2.6072   -5.3598    4.6999 C   0  0  0  0  0  0  0  0  0  0  0  0
    2.8664   -4.0576    4.3518 C   0  0  0  0  0  0  0  0  0  0  0  0
    4.1639   -3.6135    4.0777 C   0  0  0  0  0  0  0  0  0  0  0  0
    1.6246   -3.4418    4.3076 C   0  0  0  0  0  0  0  0  0  0  0  0
    0.5489   -6.7173    5.1799 C   0  0  0  0  0  0  0  0  0  0  0  0
   -3.4229   -6.5352    6.7752 C   0  0  0  0  0  0  0  0  0  0  0  0
   -2.7471   -7.7506    6.7055 C   0  0  0  0  0  0  0  0  0  0  0  0
    2.9554   -1.3074    5.6269 F   0  0  0  0  0  0  0  0  0  0  0  0
    2.0217   -1.0057    4.6886 C   0  0  0  0  0  0  0  0  0  0  0  0
    1.7525    0.3366    4.4022 C   0  0  0  0  0  0  0  0  0  0  0  0
    0.7886    0.6827    3.4402 C   0  0  0  0  0  0  0  0  0  0  0  0
    0.5081    2.1043    3.1412 C   0  0  0  0  0  0  0  0  0  0  0  0
    1.5189    2.9334    2.6613 O   0  0  0  0  0  0  0  0  0  0  0  0
   -0.6468    2.5784    3.3178 O   0  0  0  0  0  0  0  0  0  0  0  0
    0.1031   -0.3414    2.7641 C   0  0  0  0  0  0  0  0  0  0  0  0
    0.3711   -1.6827    3.0506 C   0  0  0  0  0  0  0  0  0  0  0  0
    1.3183   -2.0259    4.0268 C   0  0  0  0  0  0  0  0  0  0  0  0
    4.4139   -2.3530    3.6472 F   0  0  0  0  0  0  0  0  0  0  0  0
    5.2164   -4.5346    4.2195 C   0  0  0  0  0  0  0  0  0  0  0  0
    0.6769   -4.3599    4.6077 N   0  0  0  0  0  0  0  0  0  0  0  0
    1.2740   -5.5220    4.8490 N   0  0  0  0  0  4  0  0  0  0  0  0
    1.0404   -7.8531    4.9447 O   0  0  0  0  0  0  0  0  0  0  0  0
   -0.8074   -6.6280    5.7568 C   0  0  0  0  0  0  0  0  0  0  0  0
   -1.4474   -7.8063    6.1973 C   0  0  0  0  0  0  0  0  0  0  0  0
   -0.6618   -9.3795    6.0879 Cl  0  0  0  0  0  0  0  0  0  0  0  0
   -2.8014   -5.3610    6.3509 C   0  0  0  0  0  0  0  0  0  0  0  0
   -1.4816   -5.3803    5.8591 C   0  0  0  0  0  0  0  0  0  0  0  0
   -0.8325   -4.0805    5.4171 C   0  0  2  0  0  0  0  0  0  0  0  0
   -0.4958   -4.1158    4.0745 F   0  0  0  0  0  0  0  0  0  0  0  0
    0.3188   -3.8651    6.1504 F   0  0  0  0  0  0  0  0  0  0  0  0
   -1.6977   -3.0172    5.6036 F   0  0  0  0  0  0  0  0  0  0  0  0
    5.7761   -6.5611    4.7261 H   0  0  0  0  0  0  0  0  0  0  0  0
    3.4532   -7.3122    5.1607 H   0  0  0  0  0  0  0  0  0  0  0  0
   -4.4348   -6.5023    7.1584 H   0  0  0  0  0  0  0  0  0  0  0  0
   -3.2415   -8.6554    7.0361 H   0  0  0  0  0  0  0  0  0  0  0  0
    2.3008    1.1037    4.9345 H   0  0  0  0  0  0  0  0  0  0  0  0
    1.3375    3.9082    2.4536 H   0  0  0  0  0  0  0  0  0  0  0  0
   -0.6350   -0.1073    2.0071 H   0  0  0  0  0  0  0  0  0  0  0  0
   -0.1459   -2.4527    2.4919 H   0  0  0  0  0  0  0  0  0  0  0  0
    6.2335   -4.2250    4.0169 H   0  0  0  0  0  0  0  0  0  0  0  0
   -3.3591   -4.4354    6.4133 H   0  0  0  0  0  0  0  0  0  0  0  0
  1  2  4  0
  2  3  4  0
  3  4  4  0
  4  5  4  0
  4  6  4  0
  8  9  4  0
 10 11  1  0
 11 12  4  0
 12 13  4  0
 13 14  1  0
 14 15  1  0
 14 16  2  0
 13 17  4  0
 17 18  4  0
  6 19  1  0
 18 19  4  0
 11 19  4  0
  5 20  1  0
  1 21  4  0
  5 21  4  0
  6 22  4  0
  3 23  4  0
  7 23  1  0
 22 23  4  0
  7 24  2  0
  7 25  1  0
 25 26  4  0
  9 26  4  0
 26 27  1  0
  8 28  4  0
 25 29  4  0
 28 29  4  0
 29 30  1  0
 30 31  1  6
 30 32  1  0
 30 33  1  0
  1 34  1  0
  2 35  1  0
  8 36  1  0
  9 37  1  0
 12 38  1  0
 15 39  1  0
 17 40  1  0
 18 41  1  0
 21 42  1  0
 28 43  1  0
M  CHG  1  23   1
M  END
