7BLA_WCS_A_1901
     RDKit          3D

 32 34  0  0  0  0  0  0  0  0999 V2000
    1.4405    6.6756   10.4699 C   0  0  0  0  0  0  0  0  0  0  0  0
    0.1810    6.3310   11.1124 C   0  0  0  0  0  0  0  0  0  0  0  0
   -2.1317    5.9605   10.8304 C   0  0  0  0  0  0  0  0  0  0  0  0
   -3.8611    4.1538    9.5062 C   0  0  0  0  0  0  0  0  0  0  0  0
   -3.4649    6.6858    8.6100 O   0  0  0  0  0  0  0  0  0  0  0  0
   -4.7406    6.3536   10.6723 O   0  0  0  0  0  0  0  0  0  0  0  0
   -1.1862    5.7596   13.0042 C   0  0  0  0  0  0  0  0  0  0  0  0
    6.7813    8.4176    3.6323 C   0  0  0  0  0  0  0  0  0  0  0  0
    7.1993    8.8761    5.9724 C   0  0  0  0  0  0  0  0  0  0  0  0
    7.0048    8.3275    7.3849 C   0  0  0  0  0  0  0  0  0  0  0  0
    5.5589    8.0407    7.6272 C   0  0  0  0  0  0  0  0  0  0  0  0
    3.9543    7.3467    9.3222 C   0  0  0  0  0  0  0  0  0  0  0  0
    3.8023    7.0863   10.7006 C   0  0  0  0  0  0  0  0  0  0  0  0
    2.5792    6.7630   11.2400 C   0  0  0  0  0  0  0  0  0  0  0  0
   -2.6169    5.1801   14.9990 C   0  0  0  0  0  0  0  0  0  0  0  0
   -2.3525    4.4298   16.2847 C   0  0  0  0  0  0  0  0  0  0  0  0
   -3.5922    4.5487   17.1753 C   0  0  0  0  0  0  0  0  0  0  0  0
   -4.1483    3.2866   19.2535 C   0  0  0  0  0  0  0  0  0  0  0  0
   -3.4887    2.6167   20.2582 C   0  0  0  0  0  0  0  0  0  0  0  0
   -2.1468    2.7250   19.9475 C   0  0  0  0  0  0  0  0  0  0  0  0
    0.0494    6.0771   12.4551 C   0  0  0  0  0  0  0  0  0  0  0  0
    1.5694    6.9260    9.1224 C   0  0  0  0  0  0  0  0  0  0  0  0
    2.8179    7.2543    8.5803 C   0  0  0  0  0  0  0  0  0  0  0  0
    7.9310    6.8464    4.9891 C   0  0  0  0  0  0  0  0  0  0  0  0
    6.9643    7.8980    4.9512 N   0  0  0  0  0  0  0  0  0  0  0  0
   -0.9178    6.2647   10.3387 N   0  0  0  0  0  0  0  0  0  0  0  0
   -2.2194    5.7197   12.1436 N   0  0  0  0  0  0  0  0  0  0  0  0
   -1.3641    5.4940   14.3906 N   0  0  0  0  0  0  0  0  0  0  0  0
   -3.2462    3.7759   18.3775 N   0  0  0  0  0  0  0  0  0  0  0  0
   -2.0393    3.4347   18.8003 N   0  0  0  0  0  0  0  0  0  0  0  0
    5.2094    7.6516    8.9087 O   0  0  0  0  0  0  0  0  0  0  0  0
   -3.5708    5.8670    9.8430 S   0  0  2  0  0  0  0  0  0  0  0  0
  1  2  1  0
  9 10  1  0
 10 11  1  0
 12 13  2  0
 13 14  1  0
  1 14  2  0
 15 16  1  0
 16 17  1  0
 18 19  2  0
 19 20  1  0
  2 21  2  0
  7 21  1  0
  1 22  1  0
 12 23  1  0
 22 23  2  0
 24 25  1  0
  8 25  1  0
  9 25  1  0
  2 26  1  0
  3 26  2  0
  7 27  2  0
  3 27  1  0
 15 28  1  0
  7 28  1  0
 17 29  1  0
 18 29  1  0
 20 30  2  0
 29 30  1  0
 11 31  1  0
 12 31  1  0
  3 32  1  0
 32  4  1  6
  6 32  2  0
  5 32  2  0
M  END
$$$$
