7SDD_4IP_A_500
     RDKit          3D

 28 28  0  0  0  0  0  0  0  0999 V2000
   11.4996   -1.3494   -5.5829 C   0  0  2  0  0  0  0  0  0  0  0  0
   12.8984   -1.3044   -5.8562 O   0  0  0  0  0  0  0  0  0  0  0  0
   11.2704   -1.0224   -4.1169 C   0  0  2  0  0  0  0  0  0  0  0  0
   11.9750   -1.9617   -3.3195 O   0  0  0  0  0  0  0  0  0  0  0  0
    9.7825   -1.1162   -3.8409 C   0  0  2  0  0  0  0  0  0  0  0  0
    9.4982   -0.7823   -2.4958 O   0  0  0  0  0  0  0  0  0  0  0  0
    9.3081   -2.5497   -4.0597 C   0  0  1  0  0  0  0  0  0  0  0  0
    7.9505   -2.6408   -3.6297 O   0  0  0  0  0  0  0  0  0  0  0  0
    9.4977   -2.8934   -5.5289 C   0  0  2  0  0  0  0  0  0  0  0  0
    9.0743   -4.2505   -5.7016 O   0  0  0  0  0  0  0  0  0  0  0  0
   10.9694   -2.7541   -5.8830 C   0  0  1  0  0  0  0  0  0  0  0  0
   11.1723   -2.9640   -7.2894 O   0  0  0  0  0  0  0  0  0  0  0  0
   13.4886   -0.6475   -7.2044 P   0  0  2  0  0  0  0  0  0  0  0  0
   12.9100   -1.4208   -8.3622 O   0  0  0  0  0  0  0  0  0  0  0  0
   14.9976   -0.7401   -7.2085 O   0  0  0  0  0  0  0  0  0  0  0  0
   13.0951    0.8018   -7.3294 O   0  0  0  0  0  0  0  0  0  0  0  0
   10.2732    0.3123   -1.6330 P   0  0  2  0  0  0  0  0  0  0  0  0
    9.8653    0.1295   -0.1841 O   0  0  0  0  0  0  0  0  0  0  0  0
    9.8718    1.6741   -2.1188 O   0  0  0  0  0  0  0  0  0  0  0  0
   11.7480    0.0829   -1.7853 O   0  0  0  0  0  0  0  0  0  0  0  0
    7.2198   -4.0477   -3.2699 P   0  0  1  0  0  0  0  0  0  0  0  0
    8.2654   -5.0569   -2.8558 O   0  0  0  0  0  0  0  0  0  0  0  0
    6.2505   -3.8668   -2.1294 O   0  0  0  0  0  0  0  0  0  0  0  0
    6.5022   -4.5111   -4.5135 O   0  0  0  0  0  0  0  0  0  0  0  0
    7.6198   -4.6410   -6.2702 P   0  0  2  0  0  0  0  0  0  0  0  0
    7.5135   -4.1340   -7.6941 O   0  0  0  0  0  0  0  0  0  0  0  0
    6.5251   -4.0040   -5.4516 O   0  0  0  0  0  0  0  0  0  0  0  0
    7.4953   -6.1452   -6.2082 O   0  0  0  0  0  0  0  0  0  0  0  0
  1  2  1  1
  1  3  1  0
  3  4  1  1
  3  5  1  0
  5  6  1  1
  5  7  1  0
  7  8  1  6
  7  9  1  0
  9 10  1  1
  1 11  1  0
  9 11  1  0
 11 12  1  6
  2 13  1  0
 13 14  2  0
 13 15  1  1
 13 16  1  0
  6 17  1  0
 17 18  2  0
 17 19  1  6
 17 20  1  0
  8 21  1  0
 21 22  1  1
 21 23  1  0
 21 24  2  0
 10 25  1  0
 25 26  1  6
 25 27  2  0
 25 28  1  0
M  END
