7UYB_OK0_A_303
     RDKit          3D

 31 34  0  0  0  0  0  0  0  0999 V2000
  -17.8116  -20.9256   -1.6953 C   0  0  0  0  0  0  0  0  0  0  0  0
  -16.5092  -21.3682   -1.4706 C   0  0  0  0  0  0  0  0  0  0  0  0
  -15.8700  -21.2265   -0.2700 C   0  0  0  0  0  0  0  0  0  0  0  0
  -14.4908  -21.6991   -0.0461 C   0  0  2  0  0  0  0  0  0  0  0  0
  -13.6223  -21.6211   -1.2873 C   0  0  0  0  0  0  0  0  0  0  0  0
  -12.2265  -22.0208   -0.8489 C   0  0  0  0  0  0  0  0  0  0  0  0
  -13.0014  -23.2521    1.0718 C   0  0  0  0  0  0  0  0  0  0  0  0
  -14.4044  -23.0901    0.5062 C   0  0  0  0  0  0  0  0  0  0  0  0
  -16.5731  -20.6116    0.7509 C   0  0  0  0  0  0  0  0  0  0  0  0
  -22.3268  -18.6551   -0.8660 C   0  0  0  0  0  0  0  0  0  0  0  0
  -23.3534  -16.5585   -0.9673 F   0  0  0  0  0  0  0  0  0  0  0  0
  -23.6134  -17.9475   -0.9611 C   0  0  2  0  0  0  0  0  0  0  0  0
  -24.4672  -18.1615    0.0931 F   0  0  0  0  0  0  0  0  0  0  0  0
  -24.2151  -18.1238   -2.2055 F   0  0  0  0  0  0  0  0  0  0  0  0
  -22.2104  -20.0541   -0.9699 C   0  0  0  0  0  0  0  0  0  0  0  0
  -23.6538  -21.0132   -1.1570 S   0  0  1  0  0  0  0  0  0  0  0  0
  -24.8592  -20.2255   -0.7477 O   0  0  0  0  0  0  0  0  0  0  0  0
  -23.8802  -21.6071   -2.7462 N   0  0  0  0  0  0  0  0  0  0  0  0
  -23.6787  -22.1891   -0.1638 O   0  0  0  0  0  0  0  0  0  0  0  0
  -20.9362  -20.6434   -0.9084 C   0  0  0  0  0  0  0  0  0  0  0  0
  -20.7918  -22.1127   -0.9200 C   0  0  0  0  0  0  0  0  0  0  0  0
  -20.6002  -22.9709    0.0616 N   0  0  0  0  0  0  0  0  0  0  0  0
  -20.6266  -24.2170   -0.4505 N   0  0  0  0  0  0  0  0  0  0  0  0
  -20.8319  -24.1417   -1.7444 N   0  0  0  0  0  0  0  0  0  0  0  0
  -20.9321  -22.8859   -2.0353 N   0  0  0  0  0  0  0  0  0  0  0  0
  -21.1885  -17.8672   -0.7048 C   0  0  0  0  0  0  0  0  0  0  0  0
  -19.9533  -18.4354   -0.6462 C   0  0  0  0  0  0  0  0  0  0  0  0
  -19.8495  -19.8335   -0.7502 C   0  0  0  0  0  0  0  0  0  0  0  0
  -18.4621  -20.3131   -0.6193 C   0  0  0  0  0  0  0  0  0  0  0  0
  -17.8599  -20.1473    0.6101 C   0  0  0  0  0  0  0  0  0  0  0  0
  -12.1072  -22.2566    0.5589 N   0  0  0  0  0  0  0  0  0  0  0  0
  1  2  2  0
  2  3  1  0
  4  3  1  6
  4  5  1  0
  5  6  1  0
  7  8  1  0
  4  8  1  0
  3  9  2  0
 10 12  1  0
 12 11  1  6
 12 13  1  0
 12 14  1  0
 10 15  2  0
 15 16  1  0
 16 17  2  0
 16 18  1  6
 16 19  2  0
 15 20  1  0
 20 21  1  0
 21 22  1  0
 22 23  1  0
 23 24  2  0
 24 25  1  0
 21 25  2  0
 10 26  1  0
 26 27  2  0
 20 28  2  0
 27 28  1  0
  1 29  1  0
 28 29  1  0
  9 30  1  0
 29 30  2  0
  7 31  1  0
  6 31  1  0
M  END
$$$$
