6YYO_Q1K_BBB_323
     RDKit          3D

 33 35  0  0  0  0  0  0  0  0999 V2000
    0.9873    2.8579    2.6385 C   0  0  0  0  0  0  0  0  0  0  0  0
    0.2735    4.0229    6.7900 C   0  0  0  0  0  0  0  0  0  0  0  0
    2.4817    3.0561    7.3227 C   0  0  0  0  0  0  0  0  0  0  0  0
    0.2411    3.2489    5.4581 C   0  0  0  0  0  0  0  0  0  0  0  0
    2.4179    2.1621    6.0890 C   0  0  0  0  0  0  0  0  0  0  0  0
    1.3703    2.7293    1.2931 C   0  0  0  0  0  0  0  0  0  0  0  0
    1.9411    2.6644    3.6746 C   0  0  0  0  0  0  0  0  0  0  0  0
    4.7164    1.9340    1.4743 C   0  0  0  0  0  0  0  0  0  0  0  0
   -0.3577    2.8035    9.9433 O   0  0  0  0  0  0  0  0  0  0  0  0
    0.3644    2.1766    8.7830 S   0  0  2  0  0  6  0  0  0  0  0  0
   -0.6481    1.4779    7.9202 O   0  0  0  0  0  0  0  0  0  0  0  0
    1.4766    0.9396    9.4237 C   0  0  0  0  0  0  0  0  0  0  0  0
    1.1423    3.4165    7.8162 N   0  0  0  0  0  0  0  0  0  0  0  0
    1.5782    2.7891    5.0658 N   0  0  0  0  0  0  0  0  0  0  0  0
    3.2274    2.3444    3.3365 N   0  0  0  0  0  0  0  0  0  0  0  0
    2.6960    2.4081    1.0452 C   0  0  0  0  0  0  0  0  0  0  0  0
    3.2967    2.2284   -0.1448 N   0  0  0  0  0  0  0  0  0  0  0  0
    4.5677    1.9307    0.1279 N   0  0  0  0  0  0  0  0  0  0  0  0
    3.5479    2.2320    2.0513 N   0  0  0  0  0  0  0  0  0  0  0  0
   -0.0449    3.0868    2.8670 H   0  0  0  0  0  0  0  0  0  0  0  0
    0.6483    5.0494    6.5858 H   0  0  0  0  0  0  0  0  0  0  0  0
   -0.7614    4.1386    7.1786 H   0  0  0  0  0  0  0  0  0  0  0  0
    3.0786    2.5635    8.1185 H   0  0  0  0  0  0  0  0  0  0  0  0
    3.0254    3.9890    7.0569 H   0  0  0  0  0  0  0  0  0  0  0  0
   -0.4420    2.3809    5.5158 H   0  0  0  0  0  0  0  0  0  0  0  0
   -0.1684    3.9361    4.6860 H   0  0  0  0  0  0  0  0  0  0  0  0
    2.0030    1.1688    6.3554 H   0  0  0  0  0  0  0  0  0  0  0  0
    3.4534    2.0026    5.7188 H   0  0  0  0  0  0  0  0  0  0  0  0
    0.6609    2.8688    0.4877 H   0  0  0  0  0  0  0  0  0  0  0  0
    5.6394    1.7266    1.9996 H   0  0  0  0  0  0  0  0  0  0  0  0
    1.9276    0.3674    8.5876 H   0  0  0  0  0  0  0  0  0  0  0  0
    2.2670    1.4094   10.0408 H   0  0  0  0  0  0  0  0  0  0  0  0
    0.9049    0.2347   10.0617 H   0  0  0  0  0  0  0  0  0  0  0  0
  2  4  1  0
  3  5  1  0
  1  6  4  0
  1  7  4  0
  9 10  2  0
 10 11  2  0
 10 12  1  1
  2 13  1  0
 10 13  1  0
  3 13  1  0
  4 14  1  0
  7 14  1  0
  5 14  1  0
  7 15  4  0
  6 16  4  0
 16 17  4  0
  8 18  4  0
 17 18  4  0
  8 19  4  0
 15 19  4  0
 16 19  4  0
  1 20  1  0
  2 21  1  0
  2 22  1  0
  3 23  1  0
  3 24  1  0
  4 25  1  0
  4 26  1  0
  5 27  1  0
  5 28  1  0
  6 29  1  0
  8 30  1  0
 12 31  1  0
 12 32  1  0
 12 33  1  0
M  END
