7TWC_CXS_A_501
     RDKit          3D

 14 14  0  0  0  0  0  0  0  0999 V2000
   17.5468   33.5854   27.0563 S   0  0  2  0  0  0  0  0  0  0  0  0
   17.0749   32.5265   28.0096 O   0  0  0  0  0  0  0  0  0  0  0  0
   18.9344   34.0495   27.4377 O   0  0  0  0  0  0  0  0  0  0  0  0
   16.4620   34.8700   26.9866 O   0  0  0  0  0  0  0  0  0  0  0  0
   17.6315   32.8864   25.4369 C   0  0  0  0  0  0  0  0  0  0  0  0
   16.1901   32.4385   25.0854 C   0  0  0  0  0  0  0  0  0  0  0  0
   16.1630   31.8251   23.7287 C   0  0  0  0  0  0  0  0  0  0  0  0
   14.9598   31.3024   23.2352 N   0  0  0  0  0  0  0  0  0  0  0  0
   14.9049   30.7522   21.9156 C   0  0  1  0  0  0  0  0  0  0  0  0
   15.2709   29.3309   21.8779 C   0  0  0  0  0  0  0  0  0  0  0  0
   14.3347   28.4052   21.1344 C   0  0  0  0  0  0  0  0  0  0  0  0
   13.8445   29.1607   19.9150 C   0  0  0  0  0  0  0  0  0  0  0  0
   12.8722   30.1659   20.5113 C   0  0  0  0  0  0  0  0  0  0  0  0
   13.6566   31.1961   21.2262 C   0  0  0  0  0  0  0  0  0  0  0  0
  1  2  2  0
  1  3  2  0
  1  4  1  6
  1  5  1  0
  5  6  1  0
  6  7  1  0
  7  8  1  0
  9  8  1  1
  9 10  1  0
 10 11  1  0
 11 12  1  0
 12 13  1  0
  9 14  1  0
 13 14  1  0
M  END
$$$$
