7ROR_69X_A_401
     RDKit          3D

 35 38  0  0  0  0  0  0  0  0999 V2000
   -4.8541   -5.3478   36.0904 C   0  0  1  0  0  0  0  0  0  0  0  0
   -5.7779   -5.3368   37.3464 C   0  0  0  0  0  0  0  0  0  0  0  0
   -6.2475   -3.9921   37.7265 C   0  0  0  0  0  0  0  0  0  0  0  0
   -5.4227   -3.0734   38.4450 C   0  0  0  0  0  0  0  0  0  0  0  0
   -5.8624   -1.7790   38.7700 C   0  0  0  0  0  0  0  0  0  0  0  0
   -7.1573   -1.3280   38.3901 C   0  0  0  0  0  0  0  0  0  0  0  0
   -8.0226   -2.2500   37.6767 C   0  0  0  0  0  0  0  0  0  0  0  0
   -7.5396   -3.5089   37.3571 C   0  0  0  0  0  0  0  0  0  0  0  0
   -3.4162   -5.3860   36.5983 C   0  0  0  0  0  0  0  0  0  0  0  0
   -3.5521   -3.1497   39.7312 C   0  0  0  0  0  0  0  0  0  0  0  0
   -3.9128   -1.8043   40.3494 C   0  0  2  0  0  0  0  0  0  0  0  0
   -2.4161    0.0071   40.2827 C   0  0  2  0  0  0  0  0  0  0  0  0
   -3.1171   -0.0355   38.9102 C   0  0  1  0  0  0  0  0  0  0  0  0
   -4.4203   -0.7380   39.2553 C   0  0  2  0  0  0  0  0  0  0  0  0
   -0.0365   -0.6893   39.6197 C   0  0  0  0  0  0  0  0  0  0  0  0
    1.0407    1.2078   40.1159 C   0  0  0  0  0  0  0  0  0  0  0  0
    1.9441    2.3015   40.3304 C   0  0  0  0  0  0  0  0  0  0  0  0
    0.0646    3.5890   41.1265 C   0  0  0  0  0  0  0  0  0  0  0  0
   -0.3161    1.4043   40.4307 C   0  0  0  0  0  0  0  0  0  0  0  0
   -5.1240   -6.4959   35.1757 N   0  0  0  0  0  0  0  0  0  0  0  0
   -1.0335    0.2285   40.1135 N   0  0  0  0  0  0  0  0  0  0  0  0
    1.1964   -0.1062   39.6083 N   0  0  0  0  0  0  0  0  0  0  0  0
    3.2909    2.2582   40.0631 N   0  0  0  0  0  0  0  0  0  0  0  0
    1.4063    3.4970   40.8406 N   0  0  0  0  0  0  0  0  0  0  0  0
   -0.8618    2.6135   40.9639 N   0  0  0  0  0  0  0  0  0  0  0  0
   -7.6029   -0.0877   38.7194 O   0  0  0  0  0  0  0  0  0  0  0  0
   -2.5607   -6.1078   36.2432 O   0  0  0  0  0  0  0  0  0  0  0  0
   -3.2022   -4.5281   37.5827 O   0  0  0  0  0  0  0  0  0  0  0  0
   -0.7956   -3.5175   37.5242 O   0  0  0  0  0  0  0  0  0  0  0  0
   -1.3765   -5.6273   39.0381 O   0  0  0  0  0  0  0  0  0  0  0  0
   -2.1912   -3.2506   39.6327 O   0  0  0  0  0  0  0  0  0  0  0  0
   -2.6894   -1.2174   40.8779 O   0  0  0  0  0  0  0  0  0  0  0  0
   -3.3016    1.3051   38.3518 O   0  0  0  0  0  0  0  0  0  0  0  0
   -5.3781    0.0770   39.8917 O   0  0  0  0  0  0  0  0  0  0  0  0
   -1.6731   -4.3493   38.3582 P   0  0  2  0  0  0  0  0  0  0  0  0
  1  2  1  0
  2  3  1  0
  3  4  2  0
  4  5  1  0
  5  6  2  0
  6  7  1  0
  7  8  2  0
  3  8  1  0
  1  9  1  0
 11 10  1  6
 12 13  1  0
 11 14  1  0
 13 14  1  0
 16 17  2  0
 16 19  1  0
  1 20  1  6
 12 21  1  6
 15 21  1  0
 19 21  1  0
 15 22  2  0
 16 22  1  0
 17 23  1  0
 18 24  2  0
 17 24  1  0
 19 25  2  0
 18 25  1  0
  6 26  1  0
  9 27  2  0
  9 28  1  0
 10 31  1  0
 11 32  1  0
 12 32  1  0
 13 33  1  1
 14 34  1  1
 28 35  1  0
 30 35  2  0
 35 29  1  6
 31 35  1  0
M  END
