7ZCC_OGA_D_402
     RDKit          3D

 10  9  0  0  0  0  0  0  0  0999 V2000
   32.5706   -3.9561   35.0351 C   0  0  0  0  0  0  0  0  0  0  0  0
   32.6219   -4.9847   36.0530 C   0  0  0  0  0  0  0  0  0  0  0  0
   32.7370   -7.3880   36.7125 C   0  0  0  0  0  0  0  0  0  0  0  0
   33.6931   -8.4601   36.3731 C   0  0  0  0  0  0  0  0  0  0  0  0
   32.6870   -4.2851   33.8056 O   0  0  0  0  0  0  0  0  0  0  0  0
   32.4024   -2.6276   35.3066 O   0  0  0  0  0  0  0  0  0  0  0  0
   32.6305   -4.6472   37.2681 O   0  0  0  0  0  0  0  0  0  0  0  0
   33.7528   -9.6740   37.0581 O   0  0  0  0  0  0  0  0  0  0  0  0
   32.6621   -6.3525   35.7024 N   0  0  0  0  0  0  0  0  0  0  0  0
   34.5164   -8.3214   35.4269 O   0  0  0  0  0  0  0  0  0  0  0  0
  1  2  1  0
  3  4  1  0
  1  5  2  0
  1  6  1  0
  2  7  2  0
  4  8  1  0
  2  9  1  0
  3  9  1  0
  4 10  2  0
M  END
$$$$
