7BMI_U4B_A_802
     RDKit          3D

 13 13  0  0  0  0  0  0  0  0999 V2000
   57.6926   15.8906   12.4683 C   0  0  0  0  0  0  0  0  0  0  0  0
   57.9794   16.6934   13.6593 C   0  0  0  0  0  0  0  0  0  0  0  0
   58.9886   17.6470   13.5336 C   0  0  0  0  0  0  0  0  0  0  0  0
   59.2881   18.4237   14.6351 C   0  0  0  0  0  0  0  0  0  0  0  0
   57.6335   17.3235   15.9097 C   0  0  0  0  0  0  0  0  0  0  0  0
   56.9092   17.1445   17.1657 C   0  0  0  0  0  0  0  0  0  0  0  0
   57.2955   16.5224   14.8407 C   0  0  0  0  0  0  0  0  0  0  0  0
   56.3261   15.6010   14.9490 F   0  0  0  0  0  0  0  0  0  0  0  0
   58.6042   18.2474   15.8042 N   0  0  0  0  0  0  0  0  0  0  0  0
   58.4239   16.0935   11.2996 O   0  0  0  0  0  0  0  0  0  0  0  0
   56.8049   15.0064   12.4319 O   0  0  0  0  0  0  0  0  0  0  0  0
   55.9483   16.3324   17.2076 O   0  0  0  0  0  0  0  0  0  0  0  0
   57.2600   17.8512   18.3104 O   0  0  0  0  0  0  0  0  0  0  0  0
  1  2  1  0
  2  3  2  0
  3  4  1  0
  5  6  1  0
  2  7  1  0
  5  7  2  0
  7  8  1  0
  4  9  2  0
  5  9  1  0
  1 10  1  0
  1 11  2  0
  6 12  2  0
  6 13  1  0
M  END
$$$$
