6T88_MWQ_A_608
     RDKit          3D

 10 10  0  0  0  0  0  0  0  0999 V2000
   -4.6610  -51.4333  -12.7151 O   0  0  0  0  0  0  0  0  0  0  0  0
   -4.5325  -50.6525  -13.7019 C   0  0  0  0  0  0  0  0  0  0  0  0
   -3.4006  -50.4251  -14.2247 O   0  0  0  0  0  0  0  0  0  0  0  0
   -5.7652  -49.9583  -14.2450 C   0  0  0  0  0  0  0  0  0  0  0  0
   -5.5285  -48.5079  -14.6811 C   0  0  0  0  0  0  0  0  0  0  0  0
   -6.8487  -47.7503  -14.7452 C   0  0  0  0  0  0  0  0  0  0  0  0
   -7.3099  -46.9611  -15.7666 C   0  0  0  0  0  0  0  0  0  0  0  0
   -8.5113  -46.5192  -15.3856 N   0  0  0  0  0  0  0  0  0  0  0  0
   -8.7912  -46.9960  -14.1803 C   0  0  0  0  0  0  0  0  0  0  0  0
   -7.7813  -47.7538  -13.8007 N   0  0  0  0  0  0  0  0  0  0  0  0
  1  2  2  0
  2  3  1  0
  2  4  1  0
  4  5  1  0
  5  6  1  0
  6  7  2  0
  7  8  1  0
  8  9  2  0
  9 10  1  0
  6 10  1  0
M  END
