6ZK5_IMH_A_402
     RDKit          3D

 19 21  0  0  0  0  0  0  0  0999 V2000
   -0.2961   -1.8755  -14.6295 O   0  0  0  0  0  0  0  0  0  0  0  0
   -1.6145   -1.5434  -14.1993 C   0  0  0  0  0  0  0  0  0  0  0  0
   -1.7268   -1.7192  -12.6915 C   0  0  1  0  0  0  0  0  0  0  0  0
   -0.5963   -1.1466  -11.9319 N   0  0  0  0  0  0  0  0  0  0  0  0
   -2.9335   -1.0368  -12.0470 C   0  0  1  0  0  0  0  0  0  0  0  0
   -3.4847   -1.8162  -10.9915 O   0  0  0  0  0  0  0  0  0  0  0  0
   -2.4260    0.3256  -11.5343 C   0  0  1  0  0  0  0  0  0  0  0  0
   -2.8206    0.5648  -10.1883 O   0  0  0  0  0  0  0  0  0  0  0  0
   -0.8886    0.2495  -11.6063 C   0  0  2  0  0  0  0  0  0  0  0  0
   -0.2436    1.1400  -12.6207 C   0  0  0  0  0  0  0  0  0  0  0  0
   -0.8145    2.1217  -13.3779 C   0  0  0  0  0  0  0  0  0  0  0  0
    0.0877    2.5995  -14.2884 N   0  0  0  0  0  0  0  0  0  0  0  0
    1.2755    1.9276  -14.1294 C   0  0  0  0  0  0  0  0  0  0  0  0
    2.5437    1.9349  -14.7315 C   0  0  0  0  0  0  0  0  0  0  0  0
    2.7316    2.6908  -15.7677 O   0  0  0  0  0  0  0  0  0  0  0  0
    3.5575    1.1544  -14.2775 N   0  0  0  0  0  0  0  0  0  0  0  0
    3.3267    0.3309  -13.2255 C   0  0  0  0  0  0  0  0  0  0  0  0
    2.1232    0.2240  -12.6102 N   0  0  0  0  0  0  0  0  0  0  0  0
    1.1209    1.0130  -13.0737 C   0  0  0  0  0  0  0  0  0  0  0  0
  1  2  1  0
  3  2  1  6
  3  4  1  0
  3  5  1  0
  5  6  1  1
  5  7  1  0
  7  8  1  1
  4  9  1  0
  7  9  1  0
  9 10  1  6
 10 11  2  0
 11 12  1  0
 12 13  1  0
 13 14  2  0
 14 15  1  0
 14 16  1  0
 16 17  2  0
 17 18  1  0
 10 19  1  0
 13 19  1  0
 18 19  2  0
M  END
