
     RDKit          3D

 17 18  0  0  0  0  0  0  0  0999 V2000
   37.4481   30.9420   57.2905 O   0  0  0  0  0  0  0  0  0  0  0  0
   37.1443   30.2915   58.5148 C   0  0  0  0  0  0  0  0  0  0  0  0
   35.7360   29.6887   58.4773 C   0  0  1  0  0  0  0  0  0  0  0  0
   35.0173   30.1150   59.6568 O   0  0  0  0  0  0  0  0  0  0  0  0
   34.9052   30.1600   57.2847 C   0  0  1  0  0  0  0  0  0  0  0  0
   33.8595   29.2311   56.9763 O   0  0  0  0  0  0  0  0  0  0  0  0
   34.2818   31.4327   57.8047 C   0  0  0  0  0  0  0  0  0  0  0  0
   34.0190   31.0824   59.2652 C   0  0  2  0  0  0  0  0  0  0  0  0
   34.0241   32.2448   60.1472 N   0  0  0  0  0  0  0  0  0  0  0  0
   32.8837   32.4496   60.9138 C   0  0  0  0  0  0  0  0  0  0  0  0
   31.8987   31.7151   60.8911 O   0  0  0  0  0  0  0  0  0  0  0  0
   32.9007   33.5535   61.7223 N   0  0  0  0  0  0  0  0  0  0  0  0
   33.9067   34.4698   61.8156 C   0  0  0  0  0  0  0  0  0  0  0  0
   33.8291   35.4526   62.5444 O   0  0  0  0  0  0  0  0  0  0  0  0
   35.0986   34.2077   60.9767 C   0  0  0  0  0  0  0  0  0  0  0  0
   36.2308   35.1771   61.0648 C   0  0  0  0  0  0  0  0  0  0  0  0
   35.0909   33.1213   60.1944 C   0  0  0  0  0  0  0  0  0  0  0  0
  1  2  1  0
  3  2  1  6
  3  4  1  0
  3  5  1  0
  5  6  1  1
  5  7  1  0
  4  8  1  0
  7  8  1  0
  8  9  1  1
  9 10  4  0
 10 11  2  0
 10 12  4  0
 12 13  4  0
 13 14  2  0
 13 15  4  0
 15 16  1  0
  9 17  4  0
 15 17  4  0
M  END
