7T0D_FPP_B_646
     RDKit          3D

 52 51  0  0  0  0  0  0  0  0999 V2000
    3.7156   -8.1869   -3.7942 C   0  0  0  0  0  0  0  0  0  0  0  0
    3.9130   -9.5801   -3.8380 O   0  0  0  0  0  0  0  0  0  0  0  0
    3.4921   -7.6723   -5.1896 C   0  0  0  0  0  0  0  0  0  0  0  0
    2.8980   -8.3903   -6.1696 C   0  0  0  0  0  0  0  0  0  0  0  0
    2.4341   -9.8103   -5.9376 C   0  0  0  0  0  0  0  0  0  0  0  0
    2.7055   -7.7616   -7.5356 C   0  0  0  0  0  0  0  0  0  0  0  0
    3.3065   -8.6205   -8.6582 C   0  0  0  0  0  0  0  0  0  0  0  0
    4.0093   -9.8469   -8.1248 C   0  0  0  0  0  0  0  0  0  0  0  0
    3.7048  -10.4130   -6.9369 C   0  0  0  0  0  0  0  0  0  0  0  0
    2.6235   -9.8451   -6.0485 C   0  0  0  0  0  0  0  0  0  0  0  0
    4.4675  -11.6384   -6.4844 C   0  0  0  0  0  0  0  0  0  0  0  0
    3.5250  -12.6559   -5.8318 C   0  0  0  0  0  0  0  0  0  0  0  0
    2.1882  -12.0270   -5.5250 C   0  0  0  0  0  0  0  0  0  0  0  0
    1.9819  -10.6978   -5.3915 C   0  0  0  0  0  0  0  0  0  0  0  0
    0.5969  -10.2168   -5.0417 C   0  0  0  0  0  0  0  0  0  0  0  0
    3.0899   -9.6909   -5.5965 C   0  0  0  0  0  0  0  0  0  0  0  0
    2.4935  -10.3507   -3.2893 P   0  0  2  0  0  5  0  0  0  0  0  0
    2.5686  -10.5066   -1.7848 O   0  0  0  0  0  0  0  0  0  0  0  0
    2.3418  -11.8708   -4.0251 O   0  0  0  0  0  0  0  0  0  0  0  0
    1.1730   -9.3611   -3.7083 O   0  0  0  0  0  0  0  0  0  0  0  0
    1.5052   -8.6611   -5.2247 P   0  0  2  0  0  5  0  0  0  0  0  0
    2.7203   -7.7712   -5.0887 O   0  0  0  0  0  0  0  0  0  0  0  0
    0.1995   -7.7198   -5.7510 O   0  0  0  0  0  0  0  0  0  0  0  0
    1.8367   -9.8583   -6.3750 O   0  0  0  0  0  0  0  0  0  0  0  0
    4.6256   -7.6922   -3.3880 H   0  0  0  0  0  0  0  0  0  0  0  0
    2.8412   -7.9003   -3.1672 H   0  0  0  0  0  0  0  0  0  0  0  0
    3.8144   -6.6557   -5.4000 H   0  0  0  0  0  0  0  0  0  0  0  0
    3.2995  -10.4592   -5.6920 H   0  0  0  0  0  0  0  0  0  0  0  0
    1.9394  -10.2277   -6.8385 H   0  0  0  0  0  0  0  0  0  0  0  0
    1.6991   -9.8410   -5.1070 H   0  0  0  0  0  0  0  0  0  0  0  0
    3.1574   -6.7467   -7.5730 H   0  0  0  0  0  0  0  0  0  0  0  0
    1.6177   -7.6287   -7.7229 H   0  0  0  0  0  0  0  0  0  0  0  0
    4.0408   -8.0012   -9.2171 H   0  0  0  0  0  0  0  0  0  0  0  0
    2.5045   -8.9237   -9.3644 H   0  0  0  0  0  0  0  0  0  0  0  0
    4.7974  -10.2935   -8.7262 H   0  0  0  0  0  0  0  0  0  0  0  0
    2.8896   -8.8128   -5.7394 H   0  0  0  0  0  0  0  0  0  0  0  0
    2.4893  -10.4570   -5.1326 H   0  0  0  0  0  0  0  0  0  0  0  0
    1.6548   -9.8320   -6.5909 H   0  0  0  0  0  0  0  0  0  0  0  0
    4.9801  -12.1025   -7.3561 H   0  0  0  0  0  0  0  0  0  0  0  0
    5.2621  -11.3496   -5.7647 H   0  0  0  0  0  0  0  0  0  0  0  0
    3.4084  -13.5511   -6.4786 H   0  0  0  0  0  0  0  0  0  0  0  0
    3.9714  -13.0014   -4.8738 H   0  0  0  0  0  0  0  0  0  0  0  0
    1.3511  -12.7058   -5.3776 H   0  0  0  0  0  0  0  0  0  0  0  0
    0.2865  -10.6458   -4.0655 H   0  0  0  0  0  0  0  0  0  0  0  0
   -0.1215  -10.5406   -5.8248 H   0  0  0  0  0  0  0  0  0  0  0  0
    0.5514   -9.1107   -4.9649 H   0  0  0  0  0  0  0  0  0  0  0  0
    3.9249   -9.8870   -4.8936 H   0  0  0  0  0  0  0  0  0  0  0  0
    2.7357   -8.6543   -5.4181 H   0  0  0  0  0  0  0  0  0  0  0  0
    3.4633   -9.7455   -6.6401 H   0  0  0  0  0  0  0  0  0  0  0  0
    2.8700  -12.4882   -3.4592 H   0  0  0  0  0  0  0  0  0  0  0  0
    0.0692   -7.0465   -5.0360 H   0  0  0  0  0  0  0  0  0  0  0  0
    2.5706  -10.3930   -5.9782 H   0  0  0  0  0  0  0  0  0  0  0  0
  1  2  1  0
  1  3  1  0
  3  4  2  3
  4  5  1  0
  4  6  1  0
  6  7  1  0
  7  8  1  0
  8  9  2  3
  9 10  1  0
  9 11  1  0
 11 12  1  0
 12 13  1  0
 13 14  2  3
 14 15  1  0
 14 16  1  0
 17  2  1  6
 17 18  2  0
 17 19  1  0
 17 20  1  0
 21 20  1  1
 21 22  2  0
 21 23  1  0
 21 24  1  0
  1 25  1  0
  1 26  1  0
  3 27  1  0
  5 28  1  0
  5 29  1  0
  5 30  1  0
  6 31  1  0
  6 32  1  0
  7 33  1  0
  7 34  1  0
  8 35  1  0
 10 36  1  0
 10 37  1  0
 10 38  1  0
 11 39  1  0
 11 40  1  0
 12 41  1  0
 12 42  1  0
 13 43  1  0
 15 44  1  0
 15 45  1  0
 15 46  1  0
 16 47  1  0
 16 48  1  0
 16 49  1  0
 19 50  1  0
 23 51  1  0
 24 52  1  0
M  END
