1R55_097_A_518
     RDKit          3D

 23 22  0  0  0  0  0  0  0  0999 V2000
    9.7264   12.2718   24.4855 N   0  0  0  0  0  0  0  0  0  0  0  0
    6.6227   11.6968   24.7345 C   0  0  0  0  0  0  0  0  0  0  0  0
    8.6950   10.1379   23.0334 O   0  0  0  0  0  0  0  0  0  0  0  0
    9.0064   13.5203   24.5402 C   0  0  0  0  0  0  0  0  0  0  0  0
    7.7367   17.3898   28.9969 O   0  0  0  0  0  0  0  0  0  0  0  0
   10.2215   11.9075   23.1613 C   0  0  1  0  0  0  0  0  0  0  0  0
   11.4698   11.0475   23.2728 C   0  0  2  0  0  0  0  0  0  0  0  0
   12.0142   10.6799   21.9278 C   0  0  0  0  0  0  0  0  0  0  0  0
   11.0539    9.7641   23.9607 C   0  0  0  0  0  0  0  0  0  0  0  0
    9.1904   11.1627   22.4524 C   0  0  0  0  0  0  0  0  0  0  0  0
    7.4151   10.9284   20.6690 C   0  0  0  0  0  0  0  0  0  0  0  0
    7.9783   16.9233   27.7467 N   0  0  0  0  0  0  0  0  0  0  0  0
    8.8258   15.7697   27.5985 C   0  0  0  0  0  0  0  0  0  0  0  0
    9.2304   15.2642   28.6640 O   0  0  0  0  0  0  0  0  0  0  0  0
    9.1480   15.2791   26.2390 C   0  0  1  0  0  0  0  0  0  0  0  0
   10.5174   15.0179   26.2003 O   0  0  0  0  0  0  0  0  0  0  0  0
    8.4519   14.0264   25.8509 C   0  0  1  0  0  0  0  0  0  0  0  0
    6.9928   13.9845   25.8021 C   0  0  0  0  0  0  0  0  0  0  0  0
    6.1868   12.7786   25.6569 C   0  0  1  0  0  0  0  0  0  0  0  0
    4.6702   12.9913   25.5981 C   0  0  0  0  0  0  0  0  0  0  0  0
    8.8231   14.2236   23.5032 O   0  0  0  0  0  0  0  0  0  0  0  0
   12.5305   11.6930   24.1070 C   0  0  0  0  0  0  0  0  0  0  0  0
    8.6714   11.4611   21.1686 N   0  0  0  0  0  0  0  0  0  0  0  0
  1  4  1  0
  6  1  1  1
  6  7  1  0
  7  8  1  6
  9  7  1  6
  3 10  2  0
  6 10  1  0
  5 12  1  0
 12 13  1  0
 13 14  2  0
 13 15  1  0
 15 16  1  1
 17  4  1  6
 15 17  1  0
 18 17  1  6
 19  2  1  6
 18 19  1  0
 20 19  1  6
  4 21  2  0
 22  7  1  6
 10 23  1  0
 11 23  1  6
M  END
$$$$
