7XFA_D9J_A_301
     RDKit          3D

 41 45  0  0  0  0  0  0  0  0999 V2000
  -20.4041  -12.4204    0.0671 F   0  0  0  0  0  0  0  0  0  0  0  0
  -20.2242  -11.7728    1.1441 C   0  0  1  0  0  0  0  0  0  0  0  0
  -20.9869  -12.3567    2.1322 F   0  0  0  0  0  0  0  0  0  0  0  0
  -18.9587  -11.9364    1.4829 F   0  0  0  0  0  0  0  0  0  0  0  0
  -20.5406  -10.3739    0.9998 C   0  0  0  0  0  0  0  0  0  0  0  0
  -21.6782   -9.8234    1.6349 C   0  0  0  0  0  0  0  0  0  0  0  0
  -22.0077   -8.4760    1.5052 C   0  0  0  0  0  0  0  0  0  0  0  0
  -21.1825   -7.6279    0.7736 C   0  0  0  0  0  0  0  0  0  0  0  0
  -21.5623   -5.9401    0.6844 Cl  0  0  0  0  0  0  0  0  0  0  0  0
  -20.0423   -8.1455    0.1420 C   0  0  0  0  0  0  0  0  0  0  0  0
  -19.7163   -9.5107    0.2302 C   0  0  0  0  0  0  0  0  0  0  0  0
  -18.6020   -9.9367   -0.4062 N   0  0  0  0  0  0  0  0  0  0  0  0
  -18.5512  -11.0028   -1.2457 N   0  0  0  0  0  0  0  0  0  0  0  0
  -17.3017  -11.0340   -1.6984 C   0  0  0  0  0  0  0  0  0  0  0  0
  -16.8119  -12.0959   -2.6739 C   0  0  0  0  0  0  0  0  0  0  0  0
  -16.5527  -10.0551   -1.1707 N   0  0  0  0  0  0  0  0  0  0  0  0
  -17.3749   -9.4071   -0.3559 C   0  0  0  0  0  0  0  0  0  0  0  0
  -17.0438   -8.1793    0.4476 C   0  0  1  0  0  0  0  0  0  0  0  0
  -15.7225   -8.2735    1.2094 C   0  0  2  0  0  0  0  0  0  0  0  0
  -15.8717   -9.3061    2.1946 O   0  0  0  0  0  0  0  0  0  0  0  0
  -16.9890   -7.0917   -0.5024 O   0  0  0  0  0  0  0  0  0  0  0  0
  -16.8630   -5.8422    0.1911 C   0  0  2  0  0  0  0  0  0  0  0  0
  -16.9419   -4.7546   -0.8899 C   0  0  0  0  0  0  0  0  0  0  0  0
  -18.2096   -4.7541   -1.5555 O   0  0  0  0  0  0  0  0  0  0  0  0
  -15.5273   -5.7929    0.9139 C   0  0  2  0  0  0  0  0  0  0  0  0
  -14.4627   -5.9085   -0.0345 O   0  0  0  0  0  0  0  0  0  0  0  0
  -15.4847   -6.9521    1.9063 C   0  0  2  0  0  0  0  0  0  0  0  0
  -14.2401   -6.9531    2.6741 N   0  0  0  0  0  0  0  0  0  0  0  0
  -12.9892   -7.3455    2.3515 C   0  0  0  0  0  0  0  0  0  0  0  0
  -14.2650   -6.4938    3.9357 N   0  0  0  0  0  0  0  0  0  0  0  0
  -13.0270   -6.6132    4.3949 N   0  0  0  0  0  0  0  0  0  0  0  0
  -12.2224   -7.1223    3.4389 C   0  0  0  0  0  0  0  0  0  0  0  0
  -10.8829   -7.3398    3.6166 C   0  0  0  0  0  0  0  0  0  0  0  0
  -10.1417   -6.4539    4.4259 C   0  0  0  0  0  0  0  0  0  0  0  0
   -8.7751   -6.6251    4.5937 C   0  0  0  0  0  0  0  0  0  0  0  0
   -8.0709   -5.7849    5.4000 F   0  0  0  0  0  0  0  0  0  0  0  0
   -8.1090   -7.6367    3.9366 C   0  0  0  0  0  0  0  0  0  0  0  0
   -6.4666   -7.7265    4.2771 Cl  0  0  0  0  0  0  0  0  0  0  0  0
   -8.8104   -8.5210    3.1141 C   0  0  0  0  0  0  0  0  0  0  0  0
   -8.1842   -9.5200    2.4562 F   0  0  0  0  0  0  0  0  0  0  0  0
  -10.1922   -8.3733    2.9525 C   0  0  0  0  0  0  0  0  0  0  0  0
  2  1  1  6
  2  3  1  0
  2  4  1  0
  2  5  1  0
  5  6  2  0
  6  7  1  0
  7  8  2  0
  8  9  1  0
  8 10  1  0
 10 11  2  0
  5 11  1  0
 11 12  1  0
 12 13  1  0
 13 14  2  0
 14 15  1  0
 14 16  1  0
 16 17  2  0
 12 17  1  0
 18 17  1  6
 18 19  1  0
 19 20  1  1
 18 21  1  0
 21 22  1  0
 22 23  1  6
 23 24  1  0
 22 25  1  0
 25 26  1  6
 25 27  1  0
 19 27  1  0
 27 28  1  6
 28 29  1  0
 28 30  1  0
 30 31  2  0
 29 32  2  0
 31 32  1  0
 32 33  1  0
 33 34  2  0
 34 35  1  0
 35 36  1  0
 35 37  2  0
 37 38  1  0
 37 39  1  0
 39 40  1  0
 39 41  2  0
 33 41  1  0
M  END
