8F8E_XJI_A_1401
     RDKit          3D

 43 45  0  0  0  0  0  0  0  0999 V2000
  -12.7781  -30.0035   -9.3788 N   0  0  0  0  0  0  0  0  0  0  0  0
   -8.2442  -32.3585   -8.8406 C   0  0  0  0  0  0  0  0  0  0  0  0
   -9.1585  -33.3041   -9.3101 C   0  0  0  0  0  0  0  0  0  0  0  0
  -14.2673  -34.0994  -11.1915 N   0  0  0  0  0  0  0  0  0  0  0  0
  -10.4627  -32.9200   -9.6268 C   0  0  0  0  0  0  0  0  0  0  0  0
  -13.7584  -36.4077   -9.4388 O   0  0  0  0  0  0  0  0  0  0  0  0
  -13.2464  -31.9326  -10.3990 C   0  0  0  0  0  0  0  0  0  0  0  0
   -9.9366  -30.6341   -9.0114 C   0  0  0  0  0  0  0  0  0  0  0  0
   -8.6344  -31.0257   -8.6881 C   0  0  0  0  0  0  0  0  0  0  0  0
  -14.1058  -38.5157  -10.3579 N   0  0  0  0  0  0  0  0  0  0  0  0
  -10.8591  -31.5781   -9.4932 C   0  0  0  0  0  0  0  0  0  0  0  0
  -12.2539  -31.1794   -9.7806 C   0  0  0  0  0  0  0  0  0  0  0  0
  -14.3759  -31.1408  -10.3345 C   0  0  0  0  0  0  0  0  0  0  0  0
  -14.2826  -37.0990  -10.3528 C   0  0  0  0  0  0  0  0  0  0  0  0
  -15.0701  -36.4307  -11.4393 C   0  0  1  0  0  0  0  0  0  0  0  0
  -14.2747  -35.2729  -12.0717 C   0  0  1  0  0  0  0  0  0  0  0  0
  -14.8700  -34.9014  -13.4128 C   0  0  0  0  0  0  0  0  0  0  0  0
  -15.4916  -33.6536  -13.5993 C   0  0  0  0  0  0  0  0  0  0  0  0
  -16.0484  -33.3206  -14.8370 C   0  0  0  0  0  0  0  0  0  0  0  0
  -15.9923  -34.2267  -15.9001 C   0  0  0  0  0  0  0  0  0  0  0  0
  -16.5343  -33.8917  -17.0974 F   0  0  0  0  0  0  0  0  0  0  0  0
  -15.3826  -35.4741  -15.7246 C   0  0  0  0  0  0  0  0  0  0  0  0
  -15.3052  -36.6203  -17.0493 Cl  0  0  0  0  0  0  0  0  0  0  0  0
  -14.8279  -35.8112  -14.4846 C   0  0  0  0  0  0  0  0  0  0  0  0
  -13.1308  -33.2304  -11.0906 C   0  0  0  0  0  0  0  0  0  0  0  0
  -12.0304  -33.5700  -11.6044 O   0  0  0  0  0  0  0  0  0  0  0  0
  -14.0566  -29.9902   -9.7195 N   0  0  0  0  0  0  0  0  0  0  0  0
   -6.6205  -32.8505   -8.4146 Cl  0  0  0  0  0  0  0  0  0  0  0  0
  -10.2921  -29.3316   -8.8537 F   0  0  0  0  0  0  0  0  0  0  0  0
   -8.8663  -34.3406   -9.4139 H   0  0  0  0  0  0  0  0  0  0  0  0
  -15.1343  -33.8520  -10.6640 H   0  0  0  0  0  0  0  0  0  0  0  0
  -11.1684  -33.6764   -9.9550 H   0  0  0  0  0  0  0  0  0  0  0  0
   -7.9310  -30.2936   -8.3156 H   0  0  0  0  0  0  0  0  0  0  0  0
  -14.5541  -39.1067   -9.6207 H   0  0  0  0  0  0  0  0  0  0  0  0
  -13.5074  -38.9746  -11.0779 H   0  0  0  0  0  0  0  0  0  0  0  0
  -15.3522  -31.3645  -10.7416 H   0  0  0  0  0  0  0  0  0  0  0  0
  -15.3202  -37.1833  -12.2161 H   0  0  0  0  0  0  0  0  0  0  0  0
  -16.0290  -36.0580  -11.0216 H   0  0  0  0  0  0  0  0  0  0  0  0
  -13.2258  -35.6219  -12.2091 H   0  0  0  0  0  0  0  0  0  0  0  0
  -15.5438  -32.9401  -12.7858 H   0  0  0  0  0  0  0  0  0  0  0  0
  -16.5249  -32.3575  -14.9714 H   0  0  0  0  0  0  0  0  0  0  0  0
  -14.3641  -36.7810  -14.3574 H   0  0  0  0  0  0  0  0  0  0  0  0
  -14.7025  -29.1908   -9.5401 H   0  0  0  0  0  0  0  0  0  0  0  0
  2  3  2  0
  3  5  1  0
  2  9  1  0
  8  9  2  0
  8 11  1  0
  5 11  2  0
 11 12  1  0
  7 12  1  0
  1 12  2  0
  7 13  2  0
  6 14  2  0
 10 14  1  0
 14 15  1  0
 16 15  1  0
  4 16  1  0
 16 17  1  0
 17 18  2  0
 18 19  1  0
 19 20  2  0
 20 21  1  0
 20 22  1  0
 22 23  1  0
 17 24  1  0
 22 24  2  0
  4 25  1  0
  7 25  1  0
 25 26  2  0
  1 27  1  0
 13 27  1  0
  2 28  1  0
  8 29  1  0
  3 30  1  0
  4 31  1  0
  5 32  1  0
  9 33  1  0
 10 34  1  0
 10 35  1  0
 13 36  1  0
 15 37  1  6
 15 38  1  0
 16 39  1  6
 18 40  1  0
 19 41  1  0
 24 42  1  0
 27 43  1  0
M  END
