6YYO_Q1K_BBB_323
     RDKit          3D

 33 35  0  0  0  0  0  0  0  0999 V2000
   12.5692   15.5854   24.7023 C   0  0  0  0  0  0  0  0  0  0  0  0
   12.8207   15.5148   20.2500 C   0  0  1  0  0  0  0  0  0  0  0  0
   11.0089   13.8416   20.3579 C   0  0  1  0  0  0  0  0  0  0  0  0
   13.0627   15.3699   21.7649 C   0  0  1  0  0  0  0  0  0  0  0  0
   11.3180   13.5616   21.8247 C   0  0  2  0  0  0  0  0  0  0  0  0
   12.2183   15.9040   26.0248 C   0  0  0  0  0  0  0  0  0  0  0  0
   11.5882   15.0846   23.8037 C   0  0  0  0  0  0  0  0  0  0  0  0
    8.8611   15.1505   26.1777 C   0  0  0  0  0  0  0  0  0  0  0  0
   12.7986   12.3897   17.9003 O   0  0  0  0  0  0  0  0  0  0  0  0
   13.3131   13.0882   19.1283 S   0  0  2  0  0  6  0  0  0  0  0  0
   14.6187   13.7469   18.7831 O   0  0  0  0  0  0  0  0  0  0  0  0
   13.6407   11.8548   20.3729 C   0  0  1  0  0  0  0  0  0  0  0  0
   12.1872   14.3372   19.6276 N   0  0  0  0  0  0  0  0  0  0  0  0
   11.9177   14.7479   22.4396 N   0  0  0  0  0  0  0  0  0  0  0  0
   10.3076   14.9130   24.2529 N   0  0  0  0  0  0  0  0  0  0  0  0
   10.8961   15.7027   26.3898 C   0  0  0  0  0  0  0  0  0  0  0  0
   10.3233   15.9266   27.5861 N   0  0  0  0  0  0  0  0  0  0  0  0
    9.0431   15.5788   27.4499 N   0  0  0  0  0  0  0  0  0  0  0  0
   10.0179   15.2264   25.5119 N   0  0  0  0  0  0  0  0  0  0  0  0
   13.5976   15.7106   24.3914 H   0  0  0  0  0  0  0  0  0  0  0  0
   12.1542   16.3896   20.0872 H   0  0  0  0  0  0  0  0  0  0  0  0
   13.7797   15.7524   19.7409 H   0  0  0  0  0  0  0  0  0  0  0  0
   10.5975   12.9302   19.8757 H   0  0  0  0  0  0  0  0  0  0  0  0
   10.2081   14.6113   20.3048 H   0  0  0  0  0  0  0  0  0  0  0  0
   13.9742   14.7778   21.9700 H   0  0  0  0  0  0  0  0  0  0  0  0
   13.2376   16.3901   22.1710 H   0  0  0  0  0  0  0  0  0  0  0  0
   12.0138   12.7027   21.9135 H   0  0  0  0  0  0  0  0  0  0  0  0
   10.3718   13.2783   22.3336 H   0  0  0  0  0  0  0  0  0  0  0  0
   12.9488   16.2834   26.7276 H   0  0  0  0  0  0  0  0  0  0  0  0
    7.9234   14.8007   25.7663 H   0  0  0  0  0  0  0  0  0  0  0  0
   14.2161   12.3038   21.2079 H   0  0  0  0  0  0  0  0  0  0  0  0
   12.6940   11.4188   20.7470 H   0  0  0  0  0  0  0  0  0  0  0  0
   14.2495   11.0423   19.9257 H   0  0  0  0  0  0  0  0  0  0  0  0
  2  4  1  0
  3  5  1  0
  1  6  2  0
  1  7  1  0
  9 10  2  0
 10 11  2  0
 10 12  1  0
  2 13  1  0
 10 13  1  1
  3 13  1  0
  4 14  1  0
  7 14  1  0
  5 14  1  0
  7 15  2  0
  6 16  1  0
 16 17  2  0
  8 18  2  0
 17 18  1  0
  8 19  1  0
 15 19  1  0
 16 19  1  0
  1 20  1  0
  2 21  1  1
  2 22  1  0
  3 23  1  6
  3 24  1  0
  4 25  1  6
  4 26  1  0
  5 27  1  6
  5 28  1  0
  6 29  1  0
  8 30  1  0
 12 31  1  1
 12 32  1  0
 12 33  1  0
M  END
