
     RDKit          3D

 29 32  0  0  0  0  0  0  0  0999 V2000
   48.9326   11.0617   14.0493 O   0  0  0  0  0  0  0  0  0  0  0  0
   49.8882   11.8136   14.7853 C   0  0  0  0  0  0  0  0  0  0  0  0
   49.4786   13.2596   14.8576 C   0  0  0  0  0  0  0  0  0  0  0  0
   50.3875   14.2678   14.5231 C   0  0  0  0  0  0  0  0  0  0  0  0
   49.9930   15.6013   14.5619 C   0  0  0  0  0  0  0  0  0  0  0  0
   48.6858   15.9319   14.9277 C   0  0  0  0  0  0  0  0  0  0  0  0
   47.7452   14.9437   15.2607 C   0  0  0  0  0  0  0  0  0  0  0  0
   46.4484   15.3451   15.5990 N   0  0  0  0  0  0  0  0  0  0  0  0
   45.9200   16.2557   16.5084 C   0  0  0  0  0  0  0  0  0  0  0  0
   44.6705   16.1481   16.9792 N   0  0  0  0  0  0  0  0  0  0  0  0
   44.2520   17.0841   17.8517 C   0  0  0  0  0  0  0  0  0  0  0  0
   45.0331   18.1312   18.2780 C   0  0  0  0  0  0  0  0  0  0  0  0
   44.5746   19.1377   19.2203 C   0  0  0  0  0  0  0  0  0  0  0  0
   45.4047   20.1278   19.5843 C   0  0  0  0  0  0  0  0  0  0  0  0
   46.7984   20.2052   19.0287 C   0  0  0  0  0  0  0  0  0  0  0  0
   47.5371   21.1236   19.3822 O   0  0  0  0  0  0  0  0  0  0  0  0
   47.1762   19.2170   18.1330 N   0  0  0  0  0  0  0  0  0  0  0  0
   46.3056   18.1672   17.7438 C   0  0  0  0  0  0  0  0  0  0  0  0
   46.7544   17.2440   16.8665 N   0  0  0  0  0  0  0  0  0  0  0  0
   48.5099   19.2328   17.5582 C   0  0  0  0  0  0  0  0  0  0  0  0
   44.9458   21.1538   20.5417 C   0  0  0  0  0  0  0  0  0  0  0  0
   44.2929   22.3176   20.0963 C   0  0  0  0  0  0  0  0  0  0  0  0
   43.9633   22.5961   18.4186 Cl  0  0  0  0  0  0  0  0  0  0  0  0
   43.8728   23.2965   21.0040 C   0  0  0  0  0  0  0  0  0  0  0  0
   44.0990   23.1306   22.3686 C   0  0  0  0  0  0  0  0  0  0  0  0
   44.7442   21.9845   22.8277 C   0  0  0  0  0  0  0  0  0  0  0  0
   45.1659   21.0034   21.9232 C   0  0  0  0  0  0  0  0  0  0  0  0
   45.9508   19.6046   22.5773 Cl  0  0  0  0  0  0  0  0  0  0  0  0
   48.1628   13.6090   15.2112 C   0  0  0  0  0  0  0  0  0  0  0  0
  1  2  1  0
  2  3  1  0
  3  4  4  0
  4  5  4  0
  5  6  4  0
  6  7  4  0
  7  8  1  0
  8  9  1  0
  9 10  4  0
 10 11  4  0
 11 12  4  0
 12 13  4  0
 13 14  4  0
 14 15  4  0
 15 16  2  0
 15 17  4  0
 12 18  4  0
 17 18  4  0
  9 19  4  0
 18 19  4  0
 17 20  1  0
 14 21  1  0
 21 22  4  0
 22 23  1  0
 22 24  4  0
 24 25  4  0
 25 26  4  0
 21 27  4  0
 26 27  4  0
 27 28  1  0
  3 29  4  0
  7 29  4  0
M  END
