@<TRIPOS>MOLECULE
1XOZ_CIA_A_501
 48 53 0 0 0
SMALL
GASTEIGER

@<TRIPOS>ATOM
      1 C          42.8220   37.8770   10.1470 C.ar    1  UNL1       -0.0598
      2 C          42.9660   38.2730   11.5040 C.ar    1  UNL1       -0.0611
      3 C          43.8200   37.6730   12.4150 C.ar    1  UNL1       -0.0523
      4 C          44.5670   36.6040   11.8900 C.ar    1  UNL1        0.0032
      5 C          45.5670   35.7220   12.5090 C.ar    1  UNL1       -0.0147
      6 C          45.9500   34.8780   11.5180 C.ar    1  UNL1        0.0456
      7 N          45.3070   35.1450   10.3960 N.ar    1  UNL1       -0.3560
      8 C          44.4430   36.1950   10.5540 C.ar    1  UNL1        0.0470
      9 C          43.5880   36.7990    9.6480 C.ar    1  UNL1       -0.0378
     10 C          46.9640   33.8340   11.7720 C.3     1  UNL1        0.0925
     11 N          47.2580   33.5750   13.1710 N.am    1  UNL1       -0.2758
     12 C          48.1380   32.5760   13.3970 C.2     1  UNL1        0.2344
     13 O          48.6650   31.9330   12.5250 O.2     1  UNL1       -0.2738
     14 C          48.4930   32.2400   14.7760 C.3     1  UNL1        0.0910
     15 N          48.1260   33.1800   15.8350 N.am    1  UNL1       -0.2942
     16 C          47.2490   34.1540   15.6280 C.2     1  UNL1        0.2366
     17 O          46.8900   34.9790   16.4840 O.2     1  UNL1       -0.2735
     18 C          46.6300   34.3090   14.2750 C.3     1  UNL1        0.1074
     19 C          46.0970   35.7020   13.9150 C.3     1  UNL1        0.0019
     20 C          48.7160   33.0530   17.1550 C.3     1  UNL1        0.0037
     21 C          48.2060   34.2980   10.9340 C.ar    1  UNL1       -0.0175
     22 C          48.7360   33.4820    9.8960 C.ar    1  UNL1       -0.0527
     23 C          49.8220   33.8410    9.1280 C.ar    1  UNL1       -0.0158
     24 C          50.4030   35.0570    9.4070 C.ar    1  UNL1        0.1662
     25 O          51.4800   35.6170    8.7840 O.3     1  UNL1       -0.4526
     26 C          51.8080   36.6900    9.6600 C.3     1  UNL1        0.2332
     27 O          50.6580   37.0270   10.4910 O.3     1  UNL1       -0.4526
     28 C          49.9300   35.8680   10.3900 C.ar    1  UNL1        0.1666
     29 C          48.8280   35.5130   11.1710 C.ar    1  UNL1       -0.0108
     30 H          42.1616   38.3739    9.5290 H       1  UNL1        0.0618
     31 H          42.3929   39.0649   11.8349 H       1  UNL1        0.0618
     32 H          43.9009   37.9843   13.3956 H       1  UNL1        0.0624
     33 H          45.4329   34.6518    9.5533 H       1  UNL1        0.1657
     34 H          43.5145   36.4817    8.6687 H       1  UNL1        0.0638
     35 H          46.6046   32.8718   11.4723 H       1  UNL1        0.0616
     36 H          49.5561   32.1236   14.8101 H       1  UNL1        0.0560
     37 H          47.9186   31.3631   14.9905 H       1  UNL1        0.0560
     38 H          45.7275   33.7543   14.4260 H       1  UNL1        0.0600
     39 H          45.3092   35.9619   14.5909 H       1  UNL1        0.0337
     40 H          46.8988   36.4066   13.9900 H       1  UNL1        0.0337
     41 H          49.3974   32.2280   17.1633 H       1  UNL1        0.0429
     42 H          47.9437   32.8849   17.8762 H       1  UNL1        0.0429
     43 H          49.2419   33.9524   17.3986 H       1  UNL1        0.0429
     44 H          48.2833   32.5737    9.7086 H       1  UNL1        0.0622
     45 H          50.1822   33.2280    8.3800 H       1  UNL1        0.0655
     46 H          52.0900   37.5452    9.0821 H       1  UNL1        0.1166
     47 H          52.6203   36.3926   10.2897 H       1  UNL1        0.1166
     48 H          48.4833   36.1442   11.9111 H       1  UNL1        0.0659
@<TRIPOS>BOND
     1     1     2   ar
     2     2     3   ar
     3     3     4   ar
     4     4     5   ar
     5     5     6   ar
     6     6     7   ar
     7     4     8   ar
     8     7     8   ar
     9     1     9   ar
    10     8     9   ar
    11     6    10    1
    12    10    11    1
    13    11    12   am
    14    12    13    2
    15    12    14    1
    16    14    15    1
    17    15    16   am
    18    16    17    2
    19    11    18    1
    20    16    18    1
    21     5    19    1
    22    18    19    1
    23    15    20    1
    24    10    21    1
    25    21    22   ar
    26    22    23   ar
    27    23    24   ar
    28    24    25    1
    29    25    26    1
    30    26    27    1
    31    24    28   ar
    32    27    28    1
    33    21    29   ar
    34    28    29   ar
    35     1    30    1
    36     2    31    1
    37     3    32    1
    38     7    33    1
    39     9    34    1
    40    10    35    1
    41    14    36    1
    42    14    37    1
    43    18    38    1
    44    19    39    1
    45    19    40    1
    46    20    41    1
    47    20    42    1
    48    20    43    1
    49    22    44    1
    50    23    45    1
    51    26    46    1
    52    26    47    1
    53    29    48    1
