
     RDKit          3D

 24 23  0  0  0  0  0  0  0  0999 V2000
   36.0486  -30.4357    0.4057 C   0  0  0  0  0  0  0  0  0  0  0  0
   37.0541  -31.1890   -0.2379 O   0  0  0  0  0  0  0  0  0  0  0  0
   34.7342  -31.0397    0.0171 C   0  0  0  0  0  0  0  0  0  0  0  0
   34.0252  -31.9932    0.6564 C   0  0  0  0  0  0  0  0  0  0  0  0
   34.4624  -32.6328    1.9527 C   0  0  0  0  0  0  0  0  0  0  0  0
   32.6930  -32.5435    0.1546 C   0  0  0  0  0  0  0  0  0  0  0  0
   32.2008  -32.1782   -1.2557 C   0  0  0  0  0  0  0  0  0  0  0  0
   30.7643  -32.5619   -1.5035 C   0  0  0  0  0  0  0  0  0  0  0  0
   30.0653  -32.4385   -2.6499 C   0  0  0  0  0  0  0  0  0  0  0  0
   30.6258  -31.9085   -3.9424 C   0  0  0  0  0  0  0  0  0  0  0  0
   28.5984  -32.8285   -2.6951 C   0  0  0  0  0  0  0  0  0  0  0  0
   28.2197  -33.5509   -3.9929 C   0  0  0  0  0  0  0  0  0  0  0  0
   27.9281  -35.0067   -3.7444 C   0  0  0  0  0  0  0  0  0  0  0  0
   26.9202  -35.7457   -4.2475 C   0  0  0  0  0  0  0  0  0  0  0  0
   26.7601  -37.1925   -3.8579 C   0  0  0  0  0  0  0  0  0  0  0  0
   25.8862  -35.2534   -5.2213 C   0  0  0  0  0  0  0  0  0  0  0  0
   38.2950  -30.3653   -0.8283 P   0  0  1  0  0  5  0  0  0  0  0  0
   39.2320  -29.7589    0.1601 O   0  0  0  0  0  0  0  0  0  0  0  0
   39.0395  -31.4714   -1.7242 O   0  0  0  0  0  0  0  0  0  0  0  0
   37.6613  -29.4166   -1.9246 O   0  0  0  0  0  0  0  0  0  0  0  0
   38.0888  -27.9204   -2.1973 P   0  0  0  0  0  5  0  0  0  0  0  0
   39.4678  -27.5444   -1.7745 O   0  0  0  0  0  0  0  0  0  0  0  0
   37.8177  -27.6361   -3.7408 O   0  0  0  0  0  0  0  0  0  0  0  0
   36.9787  -27.0263   -1.4834 O   0  0  0  0  0  0  0  0  0  0  0  0
  1  2  1  0
  1  3  1  0
  3  4  2  0
  4  5  1  0
  4  6  1  0
  6  7  1  0
  7  8  1  0
  8  9  2  0
  9 10  1  0
  9 11  1  0
 11 12  1  0
 12 13  1  0
 13 14  2  3
 14 15  1  0
 14 16  1  0
  2 17  1  0
 17 18  2  0
 17 19  1  6
 17 20  1  0
 20 21  1  0
 21 22  2  0
 21 23  1  0
 21 24  1  0
M  END
