7NU0_DCL_A_1004
     RDKit          3D

  8  7  0  0  0  0  0  0  0  0999 V2000
   23.8531  -13.9483  -26.4741 N   0  0  0  0  0  0  0  0  0  0  0  0
   22.5831  -13.2442  -26.7190 C   0  0  2  0  0  0  0  0  0  0  0  0
   21.4976  -14.2647  -26.4164 C   0  0  0  0  0  0  0  0  0  0  0  0
   22.6093  -12.8466  -28.1523 C   0  0  0  0  0  0  0  0  0  0  0  0
   23.6085  -11.8023  -28.5240 C   0  0  1  0  0  0  0  0  0  0  0  0
   23.6822  -11.5173  -29.9908 C   0  0  0  0  0  0  0  0  0  0  0  0
   23.1633  -10.5423  -27.7784 C   0  0  0  0  0  0  0  0  0  0  0  0
   21.4377  -14.5546  -25.0432 O   0  0  0  0  0  0  0  0  0  0  0  0
  2  1  1  6
  2  3  1  0
  4  2  1  1
  4  5  1  0
  5  6  1  6
  7  5  1  1
  3  8  1  6
M  END
$$$$
