7FRX_O88_F_605
     RDKit          3D

 47 49  0  0  0  0  0  0  0  0999 V2000
    1.4601   -2.1254    0.4215 C   0  0  0  0  0  0  0  0  0  0  0  0
    2.4419   -0.4340    5.5091 O   0  0  0  0  0  0  0  0  0  0  0  0
    2.2621   -2.6478    1.4432 C   0  0  0  0  0  0  0  0  0  0  0  0
   -0.8554   -0.0527    1.8630 C   0  0  0  0  0  0  0  0  0  0  0  0
   -0.4042   -0.5552    3.0872 C   0  0  0  0  0  0  0  0  0  0  0  0
    3.5972   -2.9104    3.8221 C   0  0  0  0  0  0  0  0  0  0  0  0
    4.2970   -4.1005    3.5914 C   0  0  0  0  0  0  0  0  0  0  0  0
    5.4982   -4.0542    2.8845 O   0  0  0  0  0  0  0  0  0  0  0  0
    1.8811   -4.1374    5.0131 C   0  0  0  0  0  0  0  0  0  0  0  0
    3.7835   -5.3175    4.0737 C   0  0  0  0  0  0  0  0  0  0  0  0
    2.5751   -5.3288    4.7851 C   0  0  0  0  0  0  0  0  0  0  0  0
    0.9646   -0.7594    3.3038 C   0  0  0  0  0  0  0  0  0  0  0  0
    2.3857   -2.9247    4.5263 C   0  0  0  0  0  0  0  0  0  0  0  0
    1.8779   -0.4759    2.2799 C   0  0  0  0  0  0  0  0  0  0  0  0
    1.4281    0.0266    1.0554 C   0  0  0  0  0  0  0  0  0  0  0  0
    4.4744   -6.5068    3.8470 O   0  0  0  0  0  0  0  0  0  0  0  0
    0.0595    0.2559    0.8443 C   0  0  0  0  0  0  0  0  0  0  0  0
   -0.4622   -3.2951    1.3194 C   0  0  0  0  0  0  0  0  0  0  0  0
   -2.2947   -1.5315   -0.3717 O   0  0  0  0  0  0  0  0  0  0  0  0
    0.3337   -3.8193    2.3412 C   0  0  0  0  0  0  0  0  0  0  0  0
    0.0962   -2.4438    0.3576 C   0  0  0  0  0  0  0  0  0  0  0  0
   -0.4243    0.7573   -0.4870 C   0  0  0  0  0  0  0  0  0  0  0  0
   -1.0177   -2.7603   -2.0624 O   0  0  0  0  0  0  0  0  0  0  0  0
   -0.9191   -1.7842   -0.9217 S   0  0  1  0  0  6  0  0  0  0  0  0
    3.6146   -2.3095    1.4828 O   0  0  0  0  0  0  0  0  0  0  0  0
    1.6968   -3.4996    2.4092 C   0  0  0  0  0  0  0  0  0  0  0  0
    2.4890   -4.0244    3.4290 O   0  0  0  0  0  0  0  0  0  0  0  0
   -0.2459   -0.2883   -1.4966 N   0  0  0  0  0  0  0  0  0  0  0  0
    1.5286   -1.4195    4.8336 S   0  0  1  0  0  6  0  0  0  0  0  0
    0.3611   -1.6747    5.7459 O   0  0  0  0  0  0  0  0  0  0  0  0
    1.9034   -1.4731   -0.3200 H   0  0  0  0  0  0  0  0  0  0  0  0
   -1.9174    0.0914    1.7082 H   0  0  0  0  0  0  0  0  0  0  0  0
   -1.1227   -0.7923    3.8615 H   0  0  0  0  0  0  0  0  0  0  0  0
    4.0014   -1.9750    3.4555 H   0  0  0  0  0  0  0  0  0  0  0  0
    6.0412   -4.8875    2.6918 H   0  0  0  0  0  0  0  0  0  0  0  0
    0.9544   -4.1618    5.5723 H   0  0  0  0  0  0  0  0  0  0  0  0
    2.1745   -6.2604    5.1643 H   0  0  0  0  0  0  0  0  0  0  0  0
    2.9360   -0.6513    2.4255 H   0  0  0  0  0  0  0  0  0  0  0  0
    2.1451    0.2330    0.2700 H   0  0  0  0  0  0  0  0  0  0  0  0
    4.1248   -7.3959    4.1850 H   0  0  0  0  0  0  0  0  0  0  0  0
   -1.5134   -3.5526    1.2784 H   0  0  0  0  0  0  0  0  0  0  0  0
   -0.1102   -4.4746    3.0798 H   0  0  0  0  0  0  0  0  0  0  0  0
    0.1573    1.6653   -0.7600 H   0  0  0  0  0  0  0  0  0  0  0  0
   -1.4961    1.0528   -0.4206 H   0  0  0  0  0  0  0  0  0  0  0  0
    4.2355   -2.6613    2.2016 H   0  0  0  0  0  0  0  0  0  0  0  0
    2.1051   -4.6396    4.1366 H   0  0  0  0  0  0  0  0  0  0  0  0
    0.7807   -0.4455   -1.6247 H   0  0  0  0  0  0  0  0  0  0  0  0
  1  3  4  0
  4  5  4  0
  6  7  4  0
  7  8  1  0
  7 10  4  0
  9 11  4  0
 10 11  4  0
  5 12  4  0
  9 13  4  0
  6 13  4  0
 12 14  4  0
 14 15  4  0
 10 16  1  0
 15 17  4  0
  4 17  4  0
 18 20  4  0
 18 21  4  0
  1 21  4  0
 17 22  1  0
 21 24  1  0
 19 24  2  0
 23 24  2  0
  3 25  1  0
 20 26  4  0
  3 26  4  0
 26 27  1  0
 24 28  1  6
 22 28  1  0
 29 12  1  6
 13 29  1  0
  2 29  2  0
 29 30  2  0
  1 31  1  0
  4 32  1  0
  5 33  1  0
  6 34  1  0
  8 35  1  0
  9 36  1  0
 11 37  1  0
 14 38  1  0
 15 39  1  0
 16 40  1  0
 18 41  1  0
 20 42  1  0
 22 43  1  0
 22 44  1  0
 25 45  1  0
 27 46  1  0
 28 47  1  0
M  END
