2BSM_BSM_A_1224
     RDKit          3D

 45 47  0  0  0  0  0  0  0  0999 V2000
   36.8197    9.9345   21.6645 C   0  0  1  0  0  0  0  0  0  0  0  0
   35.8669    8.8804   21.7568 O   0  0  0  0  0  0  0  0  0  0  0  0
   34.7879    8.8651   22.6529 C   0  0  0  0  0  0  0  0  0  0  0  0
   34.2723   10.0392   23.2346 C   0  0  0  0  0  0  0  0  0  0  0  0
   33.1940    9.9710   24.1215 C   0  0  0  0  0  0  0  0  0  0  0  0
   34.2065    7.6327   22.9732 C   0  0  0  0  0  0  0  0  0  0  0  0
   33.1271    7.5648   23.8584 C   0  0  0  0  0  0  0  0  0  0  0  0
   32.6183    8.7331   24.4439 C   0  0  0  0  0  0  0  0  0  0  0  0
   31.4523    8.6690   25.3488 C   0  0  0  0  0  0  0  0  0  0  0  0
   31.1557    7.7054   26.3088 C   0  0  0  0  0  0  0  0  0  0  0  0
   31.9725    6.5402   26.7023 C   0  0  0  0  0  0  0  0  0  0  0  0
   33.1258    6.3856   26.2179 O   0  0  0  0  0  0  0  0  0  0  0  0
   31.4634    5.5934   27.6541 N   0  0  0  0  0  0  0  0  0  0  0  0
   31.6969    4.1556   27.5336 C   0  0  1  0  0  0  0  0  0  0  0  0
   32.5304    3.6471   28.7047 C   0  0  1  0  0  0  0  0  0  0  0  0
   30.0017    8.0331   26.9249 N   0  0  0  0  0  0  0  0  0  0  0  0
   29.5603    9.1638   26.3987 N   0  0  0  0  0  0  0  0  0  0  0  0
   30.4121    9.5830   25.4440 C   0  0  0  0  0  0  0  0  0  0  0  0
   30.1971   10.7898   24.6136 C   0  0  0  0  0  0  0  0  0  0  0  0
   30.6920   10.8345   23.2992 C   0  0  0  0  0  0  0  0  0  0  0  0
   30.4996   11.9682   22.5042 C   0  0  0  0  0  0  0  0  0  0  0  0
   31.1398   11.9934   20.8685 Cl  0  0  0  0  0  0  0  0  0  0  0  0
   29.7991   13.0695   23.0117 C   0  0  0  0  0  0  0  0  0  0  0  0
   29.6062   14.1986   22.2172 O   0  0  0  0  0  0  0  0  0  0  0  0
   29.2952   13.0295   24.3180 C   0  0  0  0  0  0  0  0  0  0  0  0
   29.4927   11.8982   25.1226 C   0  0  0  0  0  0  0  0  0  0  0  0
   29.0076   11.8840   26.4304 O   0  0  0  0  0  0  0  0  0  0  0  0
   36.3430   10.8440   21.2416 H   0  0  0  0  0  0  0  0  0  0  0  0
   37.2429   10.1555   22.6672 H   0  0  0  0  0  0  0  0  0  0  0  0
   37.6441    9.6202   20.9923 H   0  0  0  0  0  0  0  0  0  0  0  0
   34.6956   11.0079   23.0070 H   0  0  0  0  0  0  0  0  0  0  0  0
   32.8087   10.8842   24.5583 H   0  0  0  0  0  0  0  0  0  0  0  0
   34.5897    6.7232   22.5281 H   0  0  0  0  0  0  0  0  0  0  0  0
   32.6799    6.6027   24.0768 H   0  0  0  0  0  0  0  0  0  0  0  0
   30.8502    5.9281   28.4312 H   0  0  0  0  0  0  0  0  0  0  0  0
   30.7207    3.6240   27.5343 H   0  0  0  0  0  0  0  0  0  0  0  0
   32.2084    3.9313   26.5726 H   0  0  0  0  0  0  0  0  0  0  0  0
   32.1955    2.6289   28.9963 H   0  0  0  0  0  0  0  0  0  0  0  0
   33.5995    3.6013   28.4086 H   0  0  0  0  0  0  0  0  0  0  0  0
   32.4329    4.3267   29.5769 H   0  0  0  0  0  0  0  0  0  0  0  0
   28.6678    9.6261   26.6809 H   0  0  0  0  0  0  0  0  0  0  0  0
   31.2169    9.9831   22.8842 H   0  0  0  0  0  0  0  0  0  0  0  0
   28.8420   14.8421   22.3864 H   0  0  0  0  0  0  0  0  0  0  0  0
   28.7558   13.8820   24.7117 H   0  0  0  0  0  0  0  0  0  0  0  0
   28.2589   12.4990   26.7266 H   0  0  0  0  0  0  0  0  0  0  0  0
  1  2  1  0
  2  3  1  0
  3  4  2  0
  4  5  1  0
  3  6  1  0
  6  7  2  0
  5  8  2  0
  7  8  1  0
  8  9  1  0
  9 10  1  0
 10 11  1  0
 11 12  2  0
 11 13  1  0
 13 14  1  0
 14 15  1  0
 10 16  2  0
 16 17  1  0
  9 18  2  0
 17 18  1  0
 18 19  1  0
 19 20  2  0
 20 21  1  0
 21 22  1  0
 21 23  2  0
 23 24  1  0
 23 25  1  0
 19 26  1  0
 25 26  2  0
 26 27  1  0
  1 28  1  6
  1 29  1  0
  1 30  1  0
  4 31  1  0
  5 32  1  0
  6 33  1  0
  7 34  1  0
 13 35  1  0
 14 36  1  6
 14 37  1  0
 15 38  1  1
 15 39  1  0
 15 40  1  0
 17 41  1  0
 20 42  1  0
 24 43  1  0
 25 44  1  0
 27 45  1  0
M  END
