2BSM_BSM_A_1224
     RDKit          3D

 27 29  0  0  0  0  0  0  0  0999 V2000
   35.5638   11.3670   22.5272 C   0  0  0  0  0  0  0  0  0  0  0  0
   35.8766   10.5359   23.6465 O   0  0  0  0  0  0  0  0  0  0  0  0
   34.8280    9.7425   24.1048 C   0  0  0  0  0  0  0  0  0  0  0  0
   33.6268    9.5309   23.3881 C   0  0  0  0  0  0  0  0  0  0  0  0
   32.6221    8.6870   23.9384 C   0  0  0  0  0  0  0  0  0  0  0  0
   34.9883    9.1165   25.3341 C   0  0  0  0  0  0  0  0  0  0  0  0
   33.9903    8.3066   25.8866 C   0  0  0  0  0  0  0  0  0  0  0  0
   32.8007    8.0854   25.2021 C   0  0  0  0  0  0  0  0  0  0  0  0
   31.8040    7.2599   25.7767 C   0  0  0  0  0  0  0  0  0  0  0  0
   31.9945    6.1538   26.5678 C   0  0  0  0  0  0  0  0  0  0  0  0
   33.3127    5.5209   27.0320 C   0  0  0  0  0  0  0  0  0  0  0  0
   34.3844    5.8200   26.5292 O   0  0  0  0  0  0  0  0  0  0  0  0
   33.1729    4.6488   28.0365 N   0  0  0  0  0  0  0  0  0  0  0  0
   34.2628    3.7960   28.5867 C   0  0  0  0  0  0  0  0  0  0  0  0
   35.6438    4.4357   28.4308 C   0  0  0  0  0  0  0  0  0  0  0  0
   30.7853    5.6847   26.8846 N   0  0  0  0  0  0  0  0  0  0  0  0
   29.8624    6.3755   26.3656 N   0  0  0  0  0  0  0  0  0  0  0  0
   30.3882    7.3953   25.6889 C   0  0  0  0  0  0  0  0  0  0  0  0
   29.7011    8.3932   24.9971 C   0  0  0  0  0  0  0  0  0  0  0  0
   30.1681    9.6946   25.0016 C   0  0  0  0  0  0  0  0  0  0  0  0
   29.4707   10.7067   24.3225 C   0  0  0  0  0  0  0  0  0  0  0  0
   30.0523   12.3333   24.3352 Cl  0  0  0  0  0  0  0  0  0  0  0  0
   28.2898   10.4102   23.6587 C   0  0  0  0  0  0  0  0  0  0  0  0
   27.6253   11.3781   22.9816 O   0  0  0  0  0  0  0  0  0  0  0  0
   27.8107    9.0928   23.6609 C   0  0  0  0  0  0  0  0  0  0  0  0
   28.5042    8.1047   24.3576 C   0  0  0  0  0  0  0  0  0  0  0  0
   28.0264    6.8565   24.3765 O   0  0  0  0  0  0  0  0  0  0  0  0
  1  2  1  0
  2  3  1  0
  3  4  2  0
  4  5  1  0
  3  6  1  0
  6  7  2  0
  5  8  2  0
  7  8  1  0
  8  9  1  0
  9 10  1  0
 10 11  1  0
 11 12  2  0
 11 13  1  0
 13 14  1  0
 14 15  1  0
 10 16  2  0
 16 17  1  0
  9 18  2  0
 17 18  1  0
 18 19  1  0
 19 20  2  0
 20 21  1  0
 21 22  1  0
 21 23  2  0
 23 24  1  0
 23 25  1  0
 19 26  1  0
 25 26  2  0
 26 27  1  0
M  END
