1L7F_BCZ_A_801
     RDKit          3D

 51 51  0  0  0  0  0  0  0  0999 V2000
   23.4964   15.9051   62.8841 C   0  0  1  0  0  0  0  0  0  0  0  0
   22.5510   15.8480   61.7567 N   0  0  0  0  0  0  0  0  0  0  0  0
   21.2307   16.4095   61.8221 C   0  0  0  0  0  0  0  0  0  0  0  0
   20.3512   15.9231   62.6407 N   0  0  0  0  0  0  0  0  0  0  0  0
   20.8871   17.5085   60.9745 N   0  0  0  0  0  0  0  0  0  0  0  0
   24.8541   16.5143   62.4385 C   0  0  2  0  0  0  0  0  0  0  0  0
   26.0680   16.0832   63.3572 C   0  0  2  0  0  0  0  0  0  0  0  0
   27.4833   16.6942   63.0145 C   0  0  1  0  0  0  0  0  0  0  0  0
   27.4570   18.1555   62.4768 C   0  0  1  0  0  0  0  0  0  0  0  0
   27.5554   19.2531   63.5440 C   0  0  1  0  0  0  0  0  0  0  0  0
   28.5873   16.4261   64.0755 C   0  0  1  0  0  0  0  0  0  0  0  0
   29.3908   15.1583   63.7748 C   0  0  2  0  0  0  0  0  0  0  0  0
   26.2164   14.6196   63.3375 N   0  0  0  0  0  0  0  0  0  0  0  0
   27.1157   13.9256   62.4597 C   0  0  0  0  0  0  0  0  0  0  0  0
   27.6731   14.6262   61.2643 C   0  0  2  0  0  0  0  0  0  0  0  0
   27.4134   12.7181   62.6662 O   0  0  0  0  0  0  0  0  0  0  0  0
   24.5405   18.0280   62.4681 C   0  0  2  0  0  0  0  0  0  0  0  0
   25.6773   18.8225   62.6449 O   0  0  0  0  0  0  0  0  0  0  0  0
   23.5496   18.2359   63.6279 C   0  0  1  0  0  0  0  0  0  0  0  0
   22.4806   19.2350   63.2732 C   0  0  0  0  0  0  0  0  0  0  0  0
   21.6242   19.5870   64.1295 O   0  0  0  0  0  0  0  0  0  0  0  0
   22.4245   19.7563   61.9845 O   0  0  0  0  0  0  0  0  0  0  0  0
   22.9705   16.8557   63.9574 C   0  0  2  0  0  0  0  0  0  0  0  0
   23.5900   14.8800   63.2947 H   0  0  0  0  0  0  0  0  0  0  0  0
   22.8195   15.3515   60.8771 H   0  0  0  0  0  0  0  0  0  0  0  0
   19.3848   16.3138   62.7054 H   0  0  0  0  0  0  0  0  0  0  0  0
   21.2580   17.5607   60.0000 H   0  0  0  0  0  0  0  0  0  0  0  0
   20.2629   18.2737   61.3141 H   0  0  0  0  0  0  0  0  0  0  0  0
   25.0456   16.1794   61.4013 H   0  0  0  0  0  0  0  0  0  0  0  0
   25.8075   16.3894   64.3929 H   0  0  0  0  0  0  0  0  0  0  0  0
   27.8205   16.0917   62.1386 H   0  0  0  0  0  0  0  0  0  0  0  0
   28.3099   18.2968   61.7770 H   0  0  0  0  0  0  0  0  0  0  0  0
   26.5428   18.3189   61.8676 H   0  0  0  0  0  0  0  0  0  0  0  0
   28.6183   19.4528   63.7943 H   0  0  0  0  0  0  0  0  0  0  0  0
   27.1170   20.1928   63.1479 H   0  0  0  0  0  0  0  0  0  0  0  0
   27.0191   18.9801   64.4735 H   0  0  0  0  0  0  0  0  0  0  0  0
   29.3043   17.2658   64.1421 H   0  0  0  0  0  0  0  0  0  0  0  0
   28.1252   16.2959   65.0777 H   0  0  0  0  0  0  0  0  0  0  0  0
   28.9265   14.5919   62.9397 H   0  0  0  0  0  0  0  0  0  0  0  0
   29.4047   14.5071   64.6740 H   0  0  0  0  0  0  0  0  0  0  0  0
   30.4388   15.4098   63.5098 H   0  0  0  0  0  0  0  0  0  0  0  0
   25.6002   14.0511   63.9620 H   0  0  0  0  0  0  0  0  0  0  0  0
   27.1859   14.2339   60.3477 H   0  0  0  0  0  0  0  0  0  0  0  0
   28.7695   14.4637   61.1928 H   0  0  0  0  0  0  0  0  0  0  0  0
   27.4783   15.7164   61.3431 H   0  0  0  0  0  0  0  0  0  0  0  0
   24.0647   18.2873   61.4915 H   0  0  0  0  0  0  0  0  0  0  0  0
   25.4047   19.7577   62.4524 H   0  0  0  0  0  0  0  0  0  0  0  0
   24.0972   18.6072   64.5240 H   0  0  0  0  0  0  0  0  0  0  0  0
   23.2623   20.0889   61.5228 H   0  0  0  0  0  0  0  0  0  0  0  0
   23.3537   16.5237   64.9481 H   0  0  0  0  0  0  0  0  0  0  0  0
   21.8596   16.8515   64.0138 H   0  0  0  0  0  0  0  0  0  0  0  0
  1  2  1  0
  2  3  1  0
  3  4  2  0
  3  5  1  0
  1  6  1  0
  6  7  1  0
  7  8  1  0
  8  9  1  0
  9 10  1  0
  8 11  1  0
 11 12  1  0
  7 13  1  0
 13 14  1  0
 14 15  1  0
 14 16  2  0
  6 17  1  0
 17 18  1  0
 17 19  1  0
 19 20  1  0
 20 21  2  0
 20 22  1  0
  1 23  1  0
 19 23  1  0
  1 24  1  1
  2 25  1  0
  4 26  1  0
  5 27  1  0
  5 28  1  0
  6 29  1  6
  7 30  1  1
  8 31  1  6
  9 32  1  6
  9 33  1  0
 10 34  1  1
 10 35  1  0
 10 36  1  0
 11 37  1  1
 11 38  1  0
 12 39  1  6
 12 40  1  0
 12 41  1  0
 13 42  1  0
 15 43  1  6
 15 44  1  0
 15 45  1  0
 17 46  1  6
 18 47  1  0
 19 48  1  1
 22 49  1  0
 23 50  1  1
 23 51  1  0
M  END
