1OF6_DTY_A_1370
     RDKit          3D

 13 13  0  0  0  0  0  0  0  0999 V2000
   61.8024   39.1892   58.5556 N   0  0  0  0  0  0  0  0  0  0  0  0
   62.7045   40.3359   58.7060 C   0  0  2  0  0  0  0  0  0  0  0  0
   61.8513   41.5435   58.7318 C   0  0  0  0  0  0  0  0  0  0  0  0
   60.6212   41.5052   58.4279 O   0  0  0  0  0  0  0  0  0  0  0  0
   63.6729   40.2943   57.5515 C   0  0  0  0  0  0  0  0  0  0  0  0
   64.5674   39.1374   57.5376 C   0  0  0  0  0  0  0  0  0  0  0  0
   64.2115   37.9645   56.8948 C   0  0  0  0  0  0  0  0  0  0  0  0
   65.8021   39.1879   58.1719 C   0  0  0  0  0  0  0  0  0  0  0  0
   65.0241   36.8517   56.8572 C   0  0  0  0  0  0  0  0  0  0  0  0
   66.6144   38.0825   58.1370 C   0  0  0  0  0  0  0  0  0  0  0  0
   66.2645   36.9112   57.4979 C   0  0  0  0  0  0  0  0  0  0  0  0
   67.1071   35.7908   57.4722 O   0  0  0  0  0  0  0  0  0  0  0  0
   62.3343   42.8086   59.0906 O   0  0  0  0  0  0  0  0  0  0  0  0
  2  1  1  6
  2  3  1  0
  3  4  2  0
  2  5  1  0
  5  6  1  6
  6  7  2  0
  6  8  1  0
  7  9  1  0
  8 10  2  0
  9 11  2  0
 10 11  1  0
 11 12  1  0
  3 13  1  0
M  END
$$$$
