8DKO_TFB_A_2002
     RDKit          3D

  8  8  0  0  0  0  0  0  0  0999 V2000
   30.8621   -2.5198   47.3856 O   0  0  0  0  0  0  0  0  0  0  0  0
   30.6553   -1.2560   46.8475 C   0  0  2  0  0  0  0  0  0  0  0  0
   31.3897   -0.2704   47.6697 C   0  0  0  0  0  0  0  0  0  0  0  0
   31.0012    1.0791   47.6253 O   0  0  0  0  0  0  0  0  0  0  0  0
   29.1913   -0.9420   46.9269 C   0  0  0  0  0  0  0  0  0  0  0  0
   28.6542   -1.9435   47.9231 C   0  0  0  0  0  0  0  0  0  0  0  0
   29.8708   -2.7314   48.3351 C   0  0  0  0  0  0  0  0  0  0  0  0
   32.3452   -0.5485   48.4135 O   0  0  0  0  0  0  0  0  0  0  0  0
  1  2  1  0
  2  3  1  1
  3  4  1  0
  2  5  1  0
  5  6  1  0
  1  7  1  0
  6  7  1  0
  3  8  2  0
M  END
$$$$
