7Q2B_M6H_A_401
     RDKit          3D

 12 13  0  0  0  0  0  0  0  0999 V2000
  -33.6849  -10.3854   21.9495 C   0  0  0  0  0  0  0  0  0  0  0  0
  -32.4854  -11.0685   22.0698 C   0  0  0  0  0  0  0  0  0  0  0  0
  -33.8296   -9.3726   21.0206 C   0  0  0  0  0  0  0  0  0  0  0  0
  -31.4170  -10.7398   21.2457 C   0  0  0  0  0  0  0  0  0  0  0  0
  -32.7676   -9.0436   20.2029 C   0  0  0  0  0  0  0  0  0  0  0  0
  -27.3158   -9.3972   21.2564 C   0  0  0  0  0  0  0  0  0  0  0  0
  -27.2318   -8.1860   20.5771 C   0  0  0  0  0  0  0  0  0  0  0  0
  -30.4236   -9.3497   19.3682 C   0  0  0  0  0  0  0  0  0  0  0  0
  -29.0751   -9.1301   20.0538 C   0  0  0  0  0  0  0  0  0  0  0  0
  -31.5578   -9.7203   20.3178 C   0  0  0  0  0  0  0  0  0  0  0  0
  -28.4642   -9.9478   20.8979 N   0  0  0  0  0  0  0  0  0  0  0  0
  -28.3257   -8.0614   19.8409 N   0  0  0  0  0  0  0  0  0  0  0  0
  1  2  2  0
  1  3  1  0
  2  4  1  0
  3  5  2  0
  6  7  1  0
  8  9  1  0
  4 10  2  0
  8 10  1  0
  5 10  1  0
  6 11  1  0
  9 11  1  0
  9 12  1  0
  7 12  1  0
M  END
