8BTI_RFO_A_510
     RDKit          3D

 15 16  0  0  0  0  0  0  0  0999 V2000
   13.0304   72.3608   78.1384 C   0  0  0  0  0  0  0  0  0  0  0  0
   13.5085   73.3332   76.0698 C   0  0  0  0  0  0  0  0  0  0  0  0
   13.1180   72.6332   74.8338 C   0  0  0  0  0  0  0  0  0  0  0  0
   13.7842   72.4148   72.4266 C   0  0  0  0  0  0  0  0  0  0  0  0
   14.8605   72.6748   71.6291 C   0  0  0  0  0  0  0  0  0  0  0  0
   15.8247   73.2128   72.4532 C   0  0  0  0  0  0  0  0  0  0  0  0
   17.1009   73.6558   72.1870 C   0  0  0  0  0  0  0  0  0  0  0  0
   17.8814   74.1616   73.2085 C   0  0  0  0  0  0  0  0  0  0  0  0
   17.3664   74.2147   74.4855 C   0  0  0  0  0  0  0  0  0  0  0  0
   16.0759   73.7605   74.7234 C   0  0  0  0  0  0  0  0  0  0  0  0
   15.2750   73.2494   73.7151 C   0  0  0  0  0  0  0  0  0  0  0  0
   14.0186   72.7600   73.7088 N   0  0  0  0  0  0  0  0  0  0  0  0
   12.6296   73.1282   77.0892 O   0  0  0  0  0  0  0  0  0  0  0  0
   12.1064   71.9515   74.6563 O   0  0  0  0  0  0  0  0  0  0  0  0
   17.7106   73.5652   70.5351 Cl  0  0  0  0  0  0  0  0  0  0  0  0
  2  3  1  0
  4  5  2  0
  5  6  1  0
  6  7  1  0
  7  8  2  0
  8  9  1  0
  9 10  2  0
  6 11  2  0
 10 11  1  0
  4 12  1  0
  3 12  1  0
 11 12  1  0
  2 13  1  0
  1 13  1  0
  3 14  2  0
  7 15  1  0
M  END
$$$$
