7CUO_PHB_B_306
     RDKit          3D

 10 10  0  0  0  0  0  0  0  0999 V2000
   12.3786   16.8929   83.8278 C   0  0  0  0  0  0  0  0  0  0  0  0
   13.4261   17.5512   84.0568 O   0  0  0  0  0  0  0  0  0  0  0  0
   11.7474   17.0620   82.5845 O   0  0  0  0  0  0  0  0  0  0  0  0
   11.8377   15.9777   84.8336 C   0  0  0  0  0  0  0  0  0  0  0  0
   10.6735   15.3184   84.5218 C   0  0  0  0  0  0  0  0  0  0  0  0
   10.1401   14.4440   85.4603 C   0  0  0  0  0  0  0  0  0  0  0  0
   10.8046   14.2784   86.6624 C   0  0  0  0  0  0  0  0  0  0  0  0
   11.9764   14.9474   86.9662 C   0  0  0  0  0  0  0  0  0  0  0  0
   12.5130   15.8255   86.0247 C   0  0  0  0  0  0  0  0  0  0  0  0
   10.2546   13.4018   87.5832 O   0  0  0  0  0  0  0  0  0  0  0  0
  1  2  2  0
  1  3  1  0
  1  4  1  0
  4  5  2  0
  5  6  1  0
  6  7  2  0
  7  8  1  0
  4  9  1  0
  8  9  2  0
  7 10  1  0
M  END
$$$$
