2BSM_BSM_A_1224
     RDKit          3D

 27 29  0  0  0  0  0  0  0  0999 V2000
   33.3067   12.6379   21.7399 C   0  0  0  0  0  0  0  0  0  0  0  0
   34.2378   11.6802   22.1773 O   0  0  0  0  0  0  0  0  0  0  0  0
   33.9394   10.7234   23.1468 C   0  0  0  0  0  0  0  0  0  0  0  0
   32.5981   10.4751   23.4513 C   0  0  0  0  0  0  0  0  0  0  0  0
   32.2818    9.5203   24.4203 C   0  0  0  0  0  0  0  0  0  0  0  0
   34.9176   10.0156   23.8147 C   0  0  0  0  0  0  0  0  0  0  0  0
   34.5803    9.0708   24.7748 C   0  0  0  0  0  0  0  0  0  0  0  0
   33.2374    8.8122   25.0901 C   0  0  0  0  0  0  0  0  0  0  0  0
   32.9995    7.8159   26.1026 C   0  0  0  0  0  0  0  0  0  0  0  0
   32.6112    6.5087   25.7841 C   0  0  0  0  0  0  0  0  0  0  0  0
   32.4066    5.9828   24.4407 C   0  0  0  0  0  0  0  0  0  0  0  0
   32.4360    6.7221   23.4252 O   0  0  0  0  0  0  0  0  0  0  0  0
   32.1630    4.6027   24.2256 N   0  0  0  0  0  0  0  0  0  0  0  0
   32.0452    4.0842   22.8768 C   0  0  0  0  0  0  0  0  0  0  0  0
   33.4181    3.5825   22.4546 C   0  0  0  0  0  0  0  0  0  0  0  0
   32.4739    5.8454   26.9440 N   0  0  0  0  0  0  0  0  0  0  0  0
   32.7545    6.6667   27.9469 N   0  0  0  0  0  0  0  0  0  0  0  0
   33.0832    7.8927   27.4623 C   0  0  0  0  0  0  0  0  0  0  0  0
   33.4419    9.0410   28.2463 C   0  0  0  0  0  0  0  0  0  0  0  0
   33.1772   10.2942   27.7058 C   0  0  0  0  0  0  0  0  0  0  0  0
   33.4725   11.4672   28.3633 C   0  0  0  0  0  0  0  0  0  0  0  0
   33.1092   13.0273   27.6130 Cl  0  0  0  0  0  0  0  0  0  0  0  0
   34.0547   11.3785   29.6098 C   0  0  0  0  0  0  0  0  0  0  0  0
   34.3605   12.5662   30.2909 O   0  0  0  0  0  0  0  0  0  0  0  0
   34.3431   10.1644   30.2027 C   0  0  0  0  0  0  0  0  0  0  0  0
   34.0238    9.0063   29.4934 C   0  0  0  0  0  0  0  0  0  0  0  0
   34.2992    7.7688   30.0590 O   0  0  0  0  0  0  0  0  0  0  0  0
  1  2  1  0
  2  3  1  0
  3  4  2  0
  4  5  1  0
  3  6  1  0
  6  7  2  0
  5  8  2  0
  7  8  1  0
  8  9  1  0
  9 10  1  0
 10 11  1  0
 11 12  2  0
 11 13  1  0
 13 14  1  0
 14 15  1  0
 10 16  2  0
 16 17  1  0
  9 18  2  0
 17 18  1  0
 18 19  1  0
 19 20  2  0
 20 21  1  0
 21 22  1  0
 21 23  2  0
 23 24  1  0
 23 25  1  0
 19 26  1  0
 25 26  2  0
 26 27  1  0
M  END
$$$$
