2BSM_BSM_A_1224
     RDKit          3D

 27 29  0  0  0  0  0  0  0  0999 V2000
   36.3021    6.5087   22.0330 C   0  0  0  0  0  0  0  0  0  0  0  0
   35.2654    5.8502   22.7163 O   0  0  0  0  0  0  0  0  0  0  0  0
   34.3523    6.5193   23.5306 C   0  0  0  0  0  0  0  0  0  0  0  0
   32.9868    6.3185   23.3102 C   0  0  0  0  0  0  0  0  0  0  0  0
   32.0588    6.9816   24.1164 C   0  0  0  0  0  0  0  0  0  0  0  0
   34.7471    7.3703   24.5425 C   0  0  0  0  0  0  0  0  0  0  0  0
   33.8070    8.0194   25.3320 C   0  0  0  0  0  0  0  0  0  0  0  0
   32.4330    7.8267   25.1209 C   0  0  0  0  0  0  0  0  0  0  0  0
   31.5450    8.5506   25.9938 C   0  0  0  0  0  0  0  0  0  0  0  0
   31.3041    8.1461   27.3126 C   0  0  0  0  0  0  0  0  0  0  0  0
   31.8952    6.9887   27.9716 C   0  0  0  0  0  0  0  0  0  0  0  0
   32.3775    6.0275   27.3219 O   0  0  0  0  0  0  0  0  0  0  0  0
   31.9487    6.9014   29.3857 N   0  0  0  0  0  0  0  0  0  0  0  0
   32.4138    5.6858   30.0246 C   0  0  0  0  0  0  0  0  0  0  0  0
   31.2103    4.7737   30.2106 C   0  0  0  0  0  0  0  0  0  0  0  0
   30.4392    9.0267   27.8424 N   0  0  0  0  0  0  0  0  0  0  0  0
   30.1397    9.9407   26.9291 N   0  0  0  0  0  0  0  0  0  0  0  0
   30.8059    9.6764   25.7748 C   0  0  0  0  0  0  0  0  0  0  0  0
   30.7301   10.4429   24.5629 C   0  0  0  0  0  0  0  0  0  0  0  0
   31.9277   10.7889   23.9475 C   0  0  0  0  0  0  0  0  0  0  0  0
   31.9830   11.5182   22.7811 C   0  0  0  0  0  0  0  0  0  0  0  0
   33.5440   11.9240   22.0549 Cl  0  0  0  0  0  0  0  0  0  0  0  0
   30.7917   11.9142   22.2114 C   0  0  0  0  0  0  0  0  0  0  0  0
   30.8337   12.6577   21.0224 O   0  0  0  0  0  0  0  0  0  0  0  0
   29.5681   11.6029   22.7724 C   0  0  0  0  0  0  0  0  0  0  0  0
   29.5685   10.8622   23.9547 C   0  0  0  0  0  0  0  0  0  0  0  0
   28.3570   10.5309   24.5460 O   0  0  0  0  0  0  0  0  0  0  0  0
  1  2  1  0
  2  3  1  0
  3  4  2  0
  4  5  1  0
  3  6  1  0
  6  7  2  0
  5  8  2  0
  7  8  1  0
  8  9  1  0
  9 10  1  0
 10 11  1  0
 11 12  2  0
 11 13  1  0
 13 14  1  0
 14 15  1  0
 10 16  2  0
 16 17  1  0
  9 18  2  0
 17 18  1  0
 18 19  1  0
 19 20  2  0
 20 21  1  0
 21 22  1  0
 21 23  2  0
 23 24  1  0
 23 25  1  0
 19 26  1  0
 25 26  2  0
 26 27  1  0
M  END
$$$$
