2BSM_BSM_A_1224
     RDKit          3D

 27 29  0  0  0  0  0  0  0  0999 V2000
   36.5836    9.0282   21.1139 C   0  0  0  0  0  0  0  0  0  0  0  0
   36.4068    9.8066   22.2707 O   0  0  0  0  0  0  0  0  0  0  0  0
   35.2181    9.8182   22.9997 C   0  0  0  0  0  0  0  0  0  0  0  0
   34.1013    9.1668   22.4689 C   0  0  0  0  0  0  0  0  0  0  0  0
   32.9027    9.1694   23.1859 C   0  0  0  0  0  0  0  0  0  0  0  0
   35.1051   10.4482   24.2222 C   0  0  0  0  0  0  0  0  0  0  0  0
   33.9033   10.4383   24.9178 C   0  0  0  0  0  0  0  0  0  0  0  0
   32.7744    9.7882   24.3958 C   0  0  0  0  0  0  0  0  0  0  0  0
   31.5788    9.8420   25.1971 C   0  0  0  0  0  0  0  0  0  0  0  0
   30.5047   10.6811   24.8763 C   0  0  0  0  0  0  0  0  0  0  0  0
   30.4360   11.5791   23.7308 C   0  0  0  0  0  0  0  0  0  0  0  0
   31.4024   11.7255   22.9413 O   0  0  0  0  0  0  0  0  0  0  0  0
   29.2644   12.3306   23.4607 N   0  0  0  0  0  0  0  0  0  0  0  0
   29.2087   13.2051   22.3056 C   0  0  0  0  0  0  0  0  0  0  0  0
   29.0785   12.3278   21.0694 C   0  0  0  0  0  0  0  0  0  0  0  0
   29.5631   10.4915   25.8153 N   0  0  0  0  0  0  0  0  0  0  0  0
   29.9971    9.5901   26.6861 N   0  0  0  0  0  0  0  0  0  0  0  0
   31.2396    9.1680   26.3339 C   0  0  0  0  0  0  0  0  0  0  0  0
   32.0328    8.2005   27.0388 C   0  0  0  0  0  0  0  0  0  0  0  0
   33.0116    7.5263   26.3175 C   0  0  0  0  0  0  0  0  0  0  0  0
   33.8359    6.5800   26.8836 C   0  0  0  0  0  0  0  0  0  0  0  0
   35.0590    5.7600   25.9036 Cl  0  0  0  0  0  0  0  0  0  0  0  0
   33.6715    6.3007   28.2236 C   0  0  0  0  0  0  0  0  0  0  0  0
   34.5051    5.3385   28.8132 O   0  0  0  0  0  0  0  0  0  0  0  0
   32.7180    6.9353   28.9962 C   0  0  0  0  0  0  0  0  0  0  0  0
   31.9087    7.8857   28.3731 C   0  0  0  0  0  0  0  0  0  0  0  0
   30.9402    8.5434   29.1191 O   0  0  0  0  0  0  0  0  0  0  0  0
  1  2  1  0
  2  3  1  0
  3  4  2  0
  4  5  1  0
  3  6  1  0
  6  7  2  0
  5  8  2  0
  7  8  1  0
  8  9  1  0
  9 10  1  0
 10 11  1  0
 11 12  2  0
 11 13  1  0
 13 14  1  0
 14 15  1  0
 10 16  2  0
 16 17  1  0
  9 18  2  0
 17 18  1  0
 18 19  1  0
 19 20  2  0
 20 21  1  0
 21 22  1  0
 21 23  2  0
 23 24  1  0
 23 25  1  0
 19 26  1  0
 25 26  2  0
 26 27  1  0
M  END
$$$$
