2BSM_BSM_A_1224
     RDKit          3D

 27 29  0  0  0  0  0  0  0  0999 V2000
   36.7126    8.9268   21.2839 C   0  0  0  0  0  0  0  0  0  0  0  0
   36.3476    9.9275   22.2008 O   0  0  0  0  0  0  0  0  0  0  0  0
   35.1352    9.9161   22.8895 C   0  0  0  0  0  0  0  0  0  0  0  0
   34.1810    8.9535   22.5485 C   0  0  0  0  0  0  0  0  0  0  0  0
   32.9610    8.9286   23.2280 C   0  0  0  0  0  0  0  0  0  0  0  0
   34.8443   10.8186   23.8919 C   0  0  0  0  0  0  0  0  0  0  0  0
   33.6246   10.7756   24.5544 C   0  0  0  0  0  0  0  0  0  0  0  0
   32.6578    9.8144   24.2213 C   0  0  0  0  0  0  0  0  0  0  0  0
   31.4271    9.8611   24.9680 C   0  0  0  0  0  0  0  0  0  0  0  0
   30.3464   10.6591   24.5729 C   0  0  0  0  0  0  0  0  0  0  0  0
   30.3046   11.5169   23.3958 C   0  0  0  0  0  0  0  0  0  0  0  0
   31.1651   11.4373   22.4837 O   0  0  0  0  0  0  0  0  0  0  0  0
   29.2815   12.4850   23.2331 N   0  0  0  0  0  0  0  0  0  0  0  0
   29.2149   13.2796   22.0222 C   0  0  0  0  0  0  0  0  0  0  0  0
   28.1485   12.6664   21.1269 C   0  0  0  0  0  0  0  0  0  0  0  0
   29.3696   10.4741   25.4762 N   0  0  0  0  0  0  0  0  0  0  0  0
   29.7884    9.6140   26.3949 N   0  0  0  0  0  0  0  0  0  0  0  0
   31.0560    9.2153   26.1113 C   0  0  0  0  0  0  0  0  0  0  0  0
   31.8425    8.2937   26.8820 C   0  0  0  0  0  0  0  0  0  0  0  0
   32.8341    7.5835   26.2148 C   0  0  0  0  0  0  0  0  0  0  0  0
   33.6536    6.6752   26.8464 C   0  0  0  0  0  0  0  0  0  0  0  0
   34.8938    5.8055   25.9328 Cl  0  0  0  0  0  0  0  0  0  0  0  0
   33.4710    6.4730   28.1978 C   0  0  0  0  0  0  0  0  0  0  0  0
   34.2996    5.5503   28.8537 O   0  0  0  0  0  0  0  0  0  0  0  0
   32.5041    7.1468   28.9188 C   0  0  0  0  0  0  0  0  0  0  0  0
   31.7004    8.0560   28.2304 C   0  0  0  0  0  0  0  0  0  0  0  0
   30.7188    8.7513   28.9234 O   0  0  0  0  0  0  0  0  0  0  0  0
  1  2  1  0
  2  3  1  0
  3  4  2  0
  4  5  1  0
  3  6  1  0
  6  7  2  0
  5  8  2  0
  7  8  1  0
  8  9  1  0
  9 10  1  0
 10 11  1  0
 11 12  2  0
 11 13  1  0
 13 14  1  0
 14 15  1  0
 10 16  2  0
 16 17  1  0
  9 18  2  0
 17 18  1  0
 18 19  1  0
 19 20  2  0
 20 21  1  0
 21 22  1  0
 21 23  2  0
 23 24  1  0
 23 25  1  0
 19 26  1  0
 25 26  2  0
 26 27  1  0
M  END
$$$$
