2BSM_BSM_A_1224
     RDKit          3D

 27 29  0  0  0  0  0  0  0  0999 V2000
   34.9450    5.2640   21.4975 C   0  0  0  0  0  0  0  0  0  0  0  0
   35.2801    5.8238   22.7424 O   0  0  0  0  0  0  0  0  0  0  0  0
   34.3515    6.4768   23.5522 C   0  0  0  0  0  0  0  0  0  0  0  0
   34.7900    7.0377   24.7549 C   0  0  0  0  0  0  0  0  0  0  0  0
   33.8728    7.6947   25.5780 C   0  0  0  0  0  0  0  0  0  0  0  0
   33.0194    6.5884   23.2101 C   0  0  0  0  0  0  0  0  0  0  0  0
   32.1246    7.2461   24.0439 C   0  0  0  0  0  0  0  0  0  0  0  0
   32.5520    7.8133   25.2543 C   0  0  0  0  0  0  0  0  0  0  0  0
   31.5418    8.4689   26.0443 C   0  0  0  0  0  0  0  0  0  0  0  0
   31.2139    8.0418   27.3369 C   0  0  0  0  0  0  0  0  0  0  0  0
   31.8240    6.9251   28.0470 C   0  0  0  0  0  0  0  0  0  0  0  0
   32.2746    5.9194   27.4436 O   0  0  0  0  0  0  0  0  0  0  0  0
   31.9329    6.9302   29.4606 N   0  0  0  0  0  0  0  0  0  0  0  0
   32.4658    5.7745   30.1554 C   0  0  0  0  0  0  0  0  0  0  0  0
   31.3226    4.7911   30.3578 C   0  0  0  0  0  0  0  0  0  0  0  0
   30.2460    8.8570   27.7871 N   0  0  0  0  0  0  0  0  0  0  0  0
   29.9653    9.7526   26.8499 N   0  0  0  0  0  0  0  0  0  0  0  0
   30.7479    9.5414   25.7595 C   0  0  0  0  0  0  0  0  0  0  0  0
   30.7261   10.3070   24.5448 C   0  0  0  0  0  0  0  0  0  0  0  0
   31.9485   10.6073   23.9546 C   0  0  0  0  0  0  0  0  0  0  0  0
   32.0554   11.3310   22.7883 C   0  0  0  0  0  0  0  0  0  0  0  0
   33.6454   11.6775   22.0950 Cl  0  0  0  0  0  0  0  0  0  0  0  0
   30.8919   11.7689   22.1924 C   0  0  0  0  0  0  0  0  0  0  0  0
   30.9866   12.5072   21.0033 O   0  0  0  0  0  0  0  0  0  0  0  0
   29.6460   11.5040   22.7276 C   0  0  0  0  0  0  0  0  0  0  0  0
   29.5940   10.7669   23.9110 C   0  0  0  0  0  0  0  0  0  0  0  0
   28.3588   10.4817   24.4768 O   0  0  0  0  0  0  0  0  0  0  0  0
  1  2  1  0
  2  3  1  0
  3  4  2  0
  4  5  1  0
  3  6  1  0
  6  7  2  0
  5  8  2  0
  7  8  1  0
  8  9  1  0
  9 10  1  0
 10 11  1  0
 11 12  2  0
 11 13  1  0
 13 14  1  0
 14 15  1  0
 10 16  2  0
 16 17  1  0
  9 18  2  0
 17 18  1  0
 18 19  1  0
 19 20  2  0
 20 21  1  0
 21 22  1  0
 21 23  2  0
 23 24  1  0
 23 25  1  0
 19 26  1  0
 25 26  2  0
 26 27  1  0
M  END
$$$$
