2BSM_BSM_A_1224
     RDKit          3D

 27 29  0  0  0  0  0  0  0  0999 V2000
   37.0489   10.3732   21.4538 C   0  0  0  0  0  0  0  0  0  0  0  0
   36.4021   11.3299   22.2549 O   0  0  0  0  0  0  0  0  0  0  0  0
   35.1231   11.1392   22.7764 C   0  0  0  0  0  0  0  0  0  0  0  0
   34.7872   11.7756   23.9746 C   0  0  0  0  0  0  0  0  0  0  0  0
   33.5104   11.5946   24.5110 C   0  0  0  0  0  0  0  0  0  0  0  0
   34.1801   10.3468   22.1543 C   0  0  0  0  0  0  0  0  0  0  0  0
   32.9165   10.1808   22.7056 C   0  0  0  0  0  0  0  0  0  0  0  0
   32.5667   10.8139   23.9083 C   0  0  0  0  0  0  0  0  0  0  0  0
   31.2324   10.5713   24.3932 C   0  0  0  0  0  0  0  0  0  0  0  0
   30.1130   11.2075   23.8427 C   0  0  0  0  0  0  0  0  0  0  0  0
   30.1295   12.1613   22.7412 C   0  0  0  0  0  0  0  0  0  0  0  0
   31.1867   12.7286   22.3681 O   0  0  0  0  0  0  0  0  0  0  0  0
   28.9410   12.4900   22.0415 N   0  0  0  0  0  0  0  0  0  0  0  0
   28.9324   13.5863   21.0927 C   0  0  0  0  0  0  0  0  0  0  0  0
   28.1603   14.7355   21.7237 C   0  0  0  0  0  0  0  0  0  0  0  0
   29.0383   10.7656   24.5163 N   0  0  0  0  0  0  0  0  0  0  0  0
   29.4338    9.9010   25.4411 N   0  0  0  0  0  0  0  0  0  0  0  0
   30.7840    9.7577   25.3926 C   0  0  0  0  0  0  0  0  0  0  0  0
   31.5733    8.9113   26.2427 C   0  0  0  0  0  0  0  0  0  0  0  0
   32.7037    8.3214   25.6885 C   0  0  0  0  0  0  0  0  0  0  0  0
   33.5397    7.4941   26.4042 C   0  0  0  0  0  0  0  0  0  0  0  0
   34.9603    6.7762   25.6325 Cl  0  0  0  0  0  0  0  0  0  0  0  0
   33.2295    7.2505   27.7251 C   0  0  0  0  0  0  0  0  0  0  0  0
   34.0732    6.4095   28.4660 O   0  0  0  0  0  0  0  0  0  0  0  0
   32.1213    7.8059   28.3354 C   0  0  0  0  0  0  0  0  0  0  0  0
   31.3072    8.6367   27.5651 C   0  0  0  0  0  0  0  0  0  0  0  0
   30.1854    9.2123   28.1460 O   0  0  0  0  0  0  0  0  0  0  0  0
  1  2  1  0
  2  3  1  0
  3  4  2  0
  4  5  1  0
  3  6  1  0
  6  7  2  0
  5  8  2  0
  7  8  1  0
  8  9  1  0
  9 10  1  0
 10 11  1  0
 11 12  2  0
 11 13  1  0
 13 14  1  0
 14 15  1  0
 10 16  2  0
 16 17  1  0
  9 18  2  0
 17 18  1  0
 18 19  1  0
 19 20  2  0
 20 21  1  0
 21 22  1  0
 21 23  2  0
 23 24  1  0
 23 25  1  0
 19 26  1  0
 25 26  2  0
 26 27  1  0
M  END
$$$$
