2BSM_BSM_A_1224
     RDKit          3D

 27 29  0  0  0  0  0  0  0  0999 V2000
   35.1951    5.1342   21.7520 C   0  0  0  0  0  0  0  0  0  0  0  0
   35.5319    5.9179   22.8690 O   0  0  0  0  0  0  0  0  0  0  0  0
   34.5766    6.5439   23.6690 C   0  0  0  0  0  0  0  0  0  0  0  0
   33.2283    6.4199   23.3223 C   0  0  0  0  0  0  0  0  0  0  0  0
   32.2587    7.0412   24.1126 C   0  0  0  0  0  0  0  0  0  0  0  0
   34.9135    7.2795   24.7868 C   0  0  0  0  0  0  0  0  0  0  0  0
   33.9328    7.8890   25.5581 C   0  0  0  0  0  0  0  0  0  0  0  0
   32.5755    7.7725   25.2207 C   0  0  0  0  0  0  0  0  0  0  0  0
   31.6421    8.4465   26.0862 C   0  0  0  0  0  0  0  0  0  0  0  0
   31.4051    8.0228   27.3996 C   0  0  0  0  0  0  0  0  0  0  0  0
   32.0445    6.8920   28.0599 C   0  0  0  0  0  0  0  0  0  0  0  0
   32.5100    5.9204   27.4133 O   0  0  0  0  0  0  0  0  0  0  0  0
   32.1665    6.8437   29.4716 N   0  0  0  0  0  0  0  0  0  0  0  0
   32.7114    5.6653   30.1169 C   0  0  0  0  0  0  0  0  0  0  0  0
   31.5444    4.7636   30.4909 C   0  0  0  0  0  0  0  0  0  0  0  0
   30.4914    8.8565   27.9232 N   0  0  0  0  0  0  0  0  0  0  0  0
   30.1585    9.7601   27.0112 N   0  0  0  0  0  0  0  0  0  0  0  0
   30.8510    9.5358   25.8640 C   0  0  0  0  0  0  0  0  0  0  0  0
   30.7525   10.3049   24.6554 C   0  0  0  0  0  0  0  0  0  0  0  0
   31.9372   10.7543   24.0833 C   0  0  0  0  0  0  0  0  0  0  0  0
   31.9707   11.4967   22.9243 C   0  0  0  0  0  0  0  0  0  0  0  0
   33.5161   12.0367   22.2542 Cl  0  0  0  0  0  0  0  0  0  0  0  0
   30.7704   11.7985   22.3172 C   0  0  0  0  0  0  0  0  0  0  0  0
   30.7903   12.5542   21.1354 O   0  0  0  0  0  0  0  0  0  0  0  0
   29.5588   11.3821   22.8342 C   0  0  0  0  0  0  0  0  0  0  0  0
   29.5811   10.6328   24.0109 C   0  0  0  0  0  0  0  0  0  0  0  0
   28.3822   10.1971   24.5585 O   0  0  0  0  0  0  0  0  0  0  0  0
  1  2  1  0
  2  3  1  0
  3  4  2  0
  4  5  1  0
  3  6  1  0
  6  7  2  0
  5  8  2  0
  7  8  1  0
  8  9  1  0
  9 10  1  0
 10 11  1  0
 11 12  2  0
 11 13  1  0
 13 14  1  0
 14 15  1  0
 10 16  2  0
 16 17  1  0
  9 18  2  0
 17 18  1  0
 18 19  1  0
 19 20  2  0
 20 21  1  0
 21 22  1  0
 21 23  2  0
 23 24  1  0
 23 25  1  0
 19 26  1  0
 25 26  2  0
 26 27  1  0
M  END
$$$$
