7T3E_SLB_A_301
     RDKit          3D

 21 21  0  0  0  0  0  0  0  0999 V2000
   13.8558  -34.7341  -17.7070 C   0  0  0  0  0  0  0  0  0  0  0  0
   15.2668  -34.3495  -17.2720 C   0  0  1  0  0  0  0  0  0  0  0  0
   15.4740  -32.8535  -17.2075 C   0  0  0  0  0  0  0  0  0  0  0  0
   16.9171  -32.5351  -17.0231 C   0  0  1  0  0  0  0  0  0  0  0  0
   17.7103  -33.1527  -18.1559 C   0  0  2  0  0  0  0  0  0  0  0  0
   17.5037  -34.6626  -18.1214 C   0  0  2  0  0  0  0  0  0  0  0  0
   18.2142  -35.4129  -19.2185 C   0  0  1  0  0  0  0  0  0  0  0  0
   18.1331  -36.9324  -19.0348 C   0  0  1  0  0  0  0  0  0  0  0  0
   18.3937  -37.6641  -20.3183 C   0  0  0  0  0  0  0  0  0  0  0  0
   19.7074  -31.6976  -18.4332 C   0  0  0  0  0  0  0  0  0  0  0  0
   20.3316  -30.8782  -17.3222 C   0  0  0  0  0  0  0  0  0  0  0  0
   19.1261  -32.8814  -18.0320 N   0  0  0  0  0  0  0  0  0  0  0  0
   13.3027  -35.6989  -17.0981 O   0  0  0  0  0  0  0  0  0  0  0  0
   13.3279  -34.0861  -18.6496 O   0  0  0  0  0  0  0  0  0  0  0  0
   15.5963  -34.9498  -16.0549 O   0  0  0  0  0  0  0  0  0  0  0  0
   17.0923  -31.0992  -16.9944 O   0  0  0  0  0  0  0  0  0  0  0  0
   16.0998  -34.9509  -18.2828 O   0  0  0  0  0  0  0  0  0  0  0  0
   17.6161  -35.0970  -20.5010 O   0  0  0  0  0  0  0  0  0  0  0  0
   19.0561  -37.3290  -18.0177 O   0  0  0  0  0  0  0  0  0  0  0  0
   19.5883  -37.2692  -20.9874 O   0  0  0  0  0  0  0  0  0  0  0  0
   19.7097  -31.3354  -19.5967 O   0  0  0  0  0  0  0  0  0  0  0  0
  1  2  1  0
  2  3  1  0
  3  4  1  0
  4  5  1  0
  5  6  1  0
  6  7  1  0
  7  8  1  0
  8  9  1  0
 10 11  1  0
  5 12  1  1
 10 12  1  0
  1 13  2  0
  1 14  1  0
  2 15  1  1
  4 16  1  6
  2 17  1  0
  6 17  1  6
  7 18  1  6
  8 19  1  1
  9 20  1  0
 10 21  2  0
M  END
