1Q1G_MTI_F_306
     RDKit          3D

 20 22  0  0  0  0  0  0  0  0999 V2000
    9.0979    1.0668   95.6292 C   0  0  0  0  0  0  0  0  0  0  0  0
    7.7367    0.6946   94.4861 S   0  0  0  0  0  0  0  0  0  0  0  0
    8.3641    0.7654   92.8183 C   0  0  0  0  0  0  0  0  0  0  0  0
    8.1761    2.0812   92.1413 C   0  0  1  0  0  0  0  0  0  0  0  0
    7.8007    3.1536   93.0322 N   0  0  0  0  0  0  0  0  0  0  0  0
    9.0567    4.0862   91.3149 C   0  0  2  0  0  0  0  0  0  0  0  0
    8.7528    4.3546   89.9625 O   0  0  0  0  0  0  0  0  0  0  0  0
    9.4072    2.6232   91.4979 C   0  0  2  0  0  0  0  0  0  0  0  0
    9.7287    2.0054   90.2944 O   0  0  0  0  0  0  0  0  0  0  0  0
    7.7455    4.2583   92.0766 C   0  0  2  0  0  0  0  0  0  0  0  0
    7.6124    5.5700   92.7013 C   0  0  0  0  0  0  0  0  0  0  0  0
    6.3814    6.2027   92.8988 C   0  0  0  0  0  0  0  0  0  0  0  0
    6.6039    7.3878   93.4937 N   0  0  0  0  0  0  0  0  0  0  0  0
    7.9178    7.5796   93.7036 C   0  0  0  0  0  0  0  0  0  0  0  0
    8.6266    8.6116   94.2675 C   0  0  0  0  0  0  0  0  0  0  0  0
    8.0413    9.6251   94.7072 O   0  0  0  0  0  0  0  0  0  0  0  0
    9.9751    8.4732   94.3202 N   0  0  0  0  0  0  0  0  0  0  0  0
   10.5678    7.3629   93.8341 C   0  0  0  0  0  0  0  0  0  0  0  0
    9.8749    6.3507   93.2813 N   0  0  0  0  0  0  0  0  0  0  0  0
    8.5376    6.4487   93.2100 C   0  0  0  0  0  0  0  0  0  0  0  0
  1  2  1  0
  2  3  1  0
  4  3  1  1
  4  5  1  0
  6  7  1  6
  4  8  1  0
  6  8  1  0
  8  9  1  6
  5 10  1  0
  6 10  1  0
 10 11  1  1
 11 12  2  0
 12 13  1  0
 13 14  1  0
 14 15  1  0
 15 16  2  0
 15 17  1  0
 17 18  1  0
 18 19  2  0
 11 20  1  0
 14 20  2  0
 19 20  1  0
M  CHG  1   5   1
M  END
$$$$
