1LRH_NLA_D_8190
     RDKit          3D

 24 25  0  0  0  0  0  0  0  0999 V2000
    0.0784    0.4165    0.1490 C   0  0  0  0  0  0  0  0  0  0  0  0
   -0.9778   -0.0589   -0.6779 C   0  0  0  0  0  0  0  0  0  0  0  0
   -1.9979   -0.8391   -0.1043 C   0  0  0  0  0  0  0  0  0  0  0  0
   -1.9983   -1.1283    1.2592 C   0  0  0  0  0  0  0  0  0  0  0  0
   -0.9778   -0.6535    2.0788 C   0  0  0  0  0  0  0  0  0  0  0  0
    0.0630    0.1136    1.5388 C   0  0  0  0  0  0  0  0  0  0  0  0
    1.0928    0.5781    2.3723 C   0  0  0  0  0  0  0  0  0  0  0  0
    2.1387    1.3345    1.8439 C   0  0  0  0  0  0  0  0  0  0  0  0
    2.1683    1.6327    0.4824 C   0  0  0  0  0  0  0  0  0  0  0  0
    1.1512    1.1802   -0.3617 C   0  0  0  0  0  0  0  0  0  0  0  0
   -1.0342    0.2048   -2.1670 C   0  0  0  0  0  0  0  0  0  0  0  0
   -0.1100   -0.7172   -2.8988 C   0  0  0  0  0  0  0  0  0  0  0  0
    0.8713   -0.2541   -3.5394 O   0  0  0  0  0  0  0  0  0  0  0  0
   -0.3379   -2.0897   -2.8735 O   0  0  0  0  0  0  0  0  0  0  0  0
   -2.8020   -1.2278   -0.7171 H   0  0  0  0  0  0  0  0  0  0  0  0
   -2.7949   -1.7264    1.6828 H   0  0  0  0  0  0  0  0  0  0  0  0
   -0.9989   -0.8910    3.1359 H   0  0  0  0  0  0  0  0  0  0  0  0
    1.0897    0.3539    3.4325 H   0  0  0  0  0  0  0  0  0  0  0  0
    2.9303    1.6887    2.4916 H   0  0  0  0  0  0  0  0  0  0  0  0
    2.9846    2.2172    0.0777 H   0  0  0  0  0  0  0  0  0  0  0  0
    1.2228    1.4330   -1.4091 H   0  0  0  0  0  0  0  0  0  0  0  0
   -2.0634    0.0446   -2.5551 H   0  0  0  0  0  0  0  0  0  0  0  0
   -0.7935    1.2665   -2.3862 H   0  0  0  0  0  0  0  0  0  0  0  0
    0.2785   -2.7277   -3.3625 H   0  0  0  0  0  0  0  0  0  0  0  0
  1  2  2  0
  2  3  1  0
  3  4  2  0
  4  5  1  0
  1  6  1  0
  5  6  2  0
  6  7  1  0
  7  8  2  0
  8  9  1  0
  1 10  1  0
  9 10  2  0
  2 11  1  0
 11 12  1  0
 12 13  2  0
 12 14  1  0
  3 15  1  0
  4 16  1  0
  5 17  1  0
  7 18  1  0
  8 19  1  0
  9 20  1  0
 10 21  1  0
 11 22  1  0
 11 23  1  0
 14 24  1  0
M  END
