7ORW_7WA_A_203
     RDKit          3D

 10 11  0  0  0  0  0  0  0  0999 V2000
    4.1847   84.2516   20.9090 C   0  0  0  0  0  0  0  0  0  0  0  0
    1.7857   84.5388   21.1080 N   0  0  0  0  0  0  0  0  0  0  0  0
    3.0893   85.0908   20.9554 C   0  0  0  0  0  0  0  0  0  0  0  0
    3.2958   86.4522   20.8514 C   0  0  0  0  0  0  0  0  0  0  0  0
    4.5468   87.0171   20.7028 C   0  0  0  0  0  0  0  0  0  0  0  0
    5.6356   86.1429   20.6592 C   0  0  0  0  0  0  0  0  0  0  0  0
    5.4654   84.7871   20.7596 C   0  0  0  0  0  0  0  0  0  0  0  0
    6.3124   83.7277   20.7495 N   0  0  0  0  0  0  0  0  0  0  0  0
    5.6162   82.5836   20.8842 C   0  0  0  0  0  0  0  0  0  0  0  0
    4.2912   82.8917   20.9847 N   0  0  0  0  0  0  0  0  0  0  0  0
  2  3  1  0
  1  3  2  0
  3  4  1  0
  4  5  2  0
  5  6  1  0
  6  7  2  0
  1  7  1  0
  7  8  1  0
  8  9  1  0
  1 10  1  0
  9 10  2  0
M  END
$$$$
