7BJJ_TVW_A_301
     RDKit          3D

 15 16  0  0  0  0  0  0  0  0999 V2000
    3.9997   -3.8602   19.3774 C   0  0  0  0  0  0  0  0  0  0  0  0
    3.5955   -5.2040   19.6412 N   0  0  0  0  0  0  0  0  0  0  0  0
    3.5278   -1.5185   19.3988 C   0  0  0  0  0  0  0  0  0  0  0  0
    3.1587   -2.8169   19.6449 N   0  0  0  0  0  0  0  0  0  0  0  0
    5.5939   -2.2652   18.6084 C   0  0  0  0  0  0  0  0  0  0  0  0
    4.7582   -1.2333   18.8745 N   0  0  0  0  0  0  0  0  0  0  0  0
    5.2479   -3.5579   18.8447 C   0  0  0  0  0  0  0  0  0  0  0  0
    7.2744   -3.4337   18.0067 N   0  0  0  0  0  0  0  0  0  0  0  0
    6.3364   -4.3023   18.4541 C   0  0  0  0  0  0  0  0  0  0  0  0
    6.8322   -2.1825   18.0959 N   0  0  0  0  0  0  0  0  0  0  0  0
    4.2303   -6.0083   19.4406 H   0  0  0  0  0  0  0  0  0  0  0  0
    2.6510   -5.3976   20.0417 H   0  0  0  0  0  0  0  0  0  0  0  0
    2.8401   -0.7143   19.6211 H   0  0  0  0  0  0  0  0  0  0  0  0
    8.2166   -3.6938   17.6403 H   0  0  0  0  0  0  0  0  0  0  0  0
    6.4487   -5.3778   18.4869 H   0  0  0  0  0  0  0  0  0  0  0  0
  1  2  1  0
  1  4  2  0
  3  4  1  0
  5  6  1  0
  3  6  2  0
  1  7  1  0
  5  7  1  0
  8  9  1  0
  7  9  2  0
  8 10  1  0
  5 10  2  0
  2 11  1  0
  2 12  1  0
  3 13  1  0
  8 14  1  0
  9 15  1  0
M  END
