
     RDKit          3D

 38 40  0  0  0  0  0  0  0  0999 V2000
   11.5320   39.1621   28.1782 O   0  0  0  0  0  0  0  0  0  0  0  0
   11.9699   38.8069   29.4289 C   0  0  0  0  0  0  0  0  0  0  0  0
   11.2475   39.2282   30.5523 C   0  0  0  0  0  0  0  0  0  0  0  0
   11.6624   38.8999   31.8553 C   0  0  0  0  0  0  0  0  0  0  0  0
   10.8477   39.3225   32.9188 N   0  0  0  0  0  0  0  0  0  0  0  0
    9.7194   40.2805   32.6947 C   0  0  1  0  0  0  0  0  0  0  0  0
    8.7619   40.2317   33.9220 C   0  0  0  0  0  0  0  0  0  0  0  0
    9.0676   39.7371   34.9978 O   0  0  0  0  0  0  0  0  0  0  0  0
    7.4978   40.8035   33.6731 N   0  0  0  0  0  0  0  0  0  0  0  0
    6.3232   41.0882   34.8004 S   0  0  2  0  0  6  0  0  0  0  0  0
    5.9719   39.8430   35.4423 O   0  0  0  0  0  0  0  0  0  0  0  0
    5.3228   41.8730   34.1052 O   0  0  0  0  0  0  0  0  0  0  0  0
    7.1300   42.1556   35.9589 C   0  0  0  0  0  0  0  0  0  0  0  0
    6.9332   41.9642   37.3284 C   0  0  0  0  0  0  0  0  0  0  0  0
    7.6113   42.7785   38.2318 C   0  0  0  0  0  0  0  0  0  0  0  0
    8.4701   43.7773   37.7634 C   0  0  0  0  0  0  0  0  0  0  0  0
    8.6368   43.9997   36.3929 C   0  0  0  0  0  0  0  0  0  0  0  0
    9.5933   44.9133   35.9392 N   0  0  0  0  0  0  0  0  0  0  0  0
    8.0027   43.1437   35.4922 C   0  0  0  0  0  0  0  0  0  0  0  0
   10.2035   41.7077   32.5208 C   0  0  0  0  0  0  0  0  0  0  0  0
    9.7888   42.4263   31.3938 C   0  0  0  0  0  0  0  0  0  0  0  0
    9.0132   41.8084   30.4882 F   0  0  0  0  0  0  0  0  0  0  0  0
   10.1751   43.7523   31.1774 C   0  0  0  0  0  0  0  0  0  0  0  0
    9.7082   44.3167   30.0232 O   0  0  0  0  0  0  0  0  0  0  0  0
   10.1821   45.6043   29.6331 C   0  0  0  0  0  0  0  0  0  0  0  0
   10.9429   45.5269   28.3208 C   0  0  0  0  0  0  0  0  0  0  0  0
   10.9781   44.3744   32.1324 C   0  0  0  0  0  0  0  0  0  0  0  0
   11.3884   43.6881   33.2831 C   0  0  0  0  0  0  0  0  0  0  0  0
   12.1719   44.4225   34.1297 O   0  0  0  0  0  0  0  0  0  0  0  0
   13.3621   43.8252   34.6477 C   0  0  0  0  0  0  0  0  0  0  0  0
   13.9688   44.7015   35.7305 C   0  0  0  0  0  0  0  0  0  0  0  0
   11.0114   42.3575   33.4687 C   0  0  0  0  0  0  0  0  0  0  0  0
   12.7988   38.0980   31.9917 C   0  0  0  0  0  0  0  0  0  0  0  0
   13.5299   37.6774   30.8721 C   0  0  0  0  0  0  0  0  0  0  0  0
   13.1286   38.0393   29.5829 C   0  0  0  0  0  0  0  0  0  0  0  0
   13.9314   37.5711   28.4153 C   0  0  0  0  0  0  0  0  0  0  0  0
   13.4018   37.2989   27.2628 N   0  0  0  0  0  0  0  0  0  0  0  0
   15.2775   37.3960   28.5286 N   0  0  0  0  0  0  0  0  0  0  0  0
  1  2  1  0
  2  3  4  0
  3  4  4  0
  4  5  1  0
  6  5  1  1
  6  7  1  0
  7  8  2  0
  7  9  1  0
 10  9  1  6
 10 11  2  0
 10 12  2  0
 10 13  1  0
 13 14  4  0
 14 15  4  0
 15 16  4  0
 16 17  4  0
 17 18  1  0
 13 19  4  0
 17 19  4  0
  6 20  1  0
 20 21  4  0
 21 22  1  0
 21 23  4  0
 23 24  1  0
 24 25  1  0
 25 26  1  0
 23 27  4  0
 27 28  4  0
 28 29  1  0
 29 30  1  0
 30 31  1  0
 20 32  4  0
 28 32  4  0
  4 33  4  0
 33 34  4  0
  2 35  4  0
 34 35  4  0
 35 36  1  0
 36 37  2  0
 36 38  1  0
M  END
