@<TRIPOS>MOLECULE
1P62_GEO_B_302
 29 30 0 0 0
SMALL
GASTEIGER

@<TRIPOS>ATOM
      1 O          69.9710   38.0950   20.6110 O.3     1  UNL1       -0.3924
      2 C          70.2680   37.3460   21.7920 C.3     1  UNL1        0.0731
      3 C          70.4670   35.8600   21.3710 C.3     1  UNL1        0.1159
      4 O          69.1490   35.3280   21.0460 O.3     1  UNL1       -0.3422
      5 C          69.2100   34.4730   19.9010 C.3     1  UNL1        0.2055
      6 N          67.9220   34.4220   19.1610 N.ar    1  UNL1       -0.2670
      7 C          67.1460   35.4720   18.9970 C.ar    1  UNL1        0.0153
      8 C          65.9110   35.3510   18.5820 C.ar    1  UNL1       -0.0056
      9 C          65.4560   34.2010   18.1600 C.ar    1  UNL1        0.1230
     10 N          66.2500   33.1260   18.1940 N.ar    1  UNL1       -0.1783
     11 C          67.4980   33.2220   18.6960 C.ar    1  UNL1        0.3523
     12 O          68.2730   32.1280   18.7270 O.2     1  UNL1       -0.2444
     13 N          64.2250   34.0320   17.6390 N.pl3   1  UNL1       -0.3430
     14 C          70.3860   35.0840   19.0980 C.3     1  UNL1        0.3207
     15 F          69.9430   36.0620   18.3370 F       1  UNL1       -0.1978
     16 F          70.8690   34.2060   18.2630 F       1  UNL1       -0.1978
     17 C          71.3680   35.6020   20.1690 C.3     1  UNL1        0.1508
     18 O          72.4070   34.5860   20.4110 O.3     1  UNL1       -0.3830
     19 H          69.8416   39.0278   20.8437 H       1  UNL1        0.2095
     20 H          69.4573   37.4229   22.4861 H       1  UNL1        0.0584
     21 H          71.1509   37.7238   22.2639 H       1  UNL1        0.0584
     22 H          70.9586   35.3914   22.1978 H       1  UNL1        0.0648
     23 H          69.3719   33.4411   20.1332 H       1  UNL1        0.0902
     24 H          67.5199   36.4122   19.2003 H       1  UNL1        0.0812
     25 H          65.2885   36.1741   18.5880 H       1  UNL1        0.0666
     26 H          63.6020   34.7928   17.5912 H       1  UNL1        0.1437
     27 H          63.9485   33.1477   17.3061 H       1  UNL1        0.1437
     28 H          71.9077   36.4865   19.9018 H       1  UNL1        0.0682
     29 H          71.9876   33.7477   20.6606 H       1  UNL1        0.2101
@<TRIPOS>BOND
     1     1     2    1
     2     3     2    1
     3     3     4    1
     4     4     5    1
     5     5     6    1
     6     6     7   ar
     7     7     8   ar
     8     8     9   ar
     9     9    10   ar
    10     6    11   ar
    11    10    11   ar
    12    11    12    2
    13     9    13    1
    14     5    14    1
    15    14    15    1
    16    14    16    1
    17     3    17    1
    18    14    17    1
    19    17    18    1
    20     1    19    1
    21     2    20    1
    22     2    21    1
    23     3    22    1
    24     5    23    1
    25     7    24    1
    26     8    25    1
    27    13    26    1
    28    13    27    1
    29    17    28    1
    30    18    29    1
