6Z1C_7EY_A_501
     RDKit          3D

 36 38  0  0  0  0  0  0  0  0999 V2000
    6.5738   -3.4879   21.7569 C   0  0  0  0  0  0  0  0  0  0  0  0
    7.7947   -3.5576   22.4057 C   0  0  0  0  0  0  0  0  0  0  0  0
    8.2186   -2.4213   23.1238 C   0  0  0  0  0  0  0  0  0  0  0  0
    7.3983   -1.3327   23.1629 N   0  0  0  0  0  0  0  0  0  0  0  0
    5.7790   -2.3941   21.8083 N   0  0  0  0  0  0  0  0  0  0  0  0
   13.1050   -2.6611   22.6139 O   0  0  0  0  0  0  0  0  0  0  0  0
   12.8044   -1.8361   23.5177 C   0  0  0  0  0  0  0  0  0  0  0  0
   13.3400   -1.9765   24.7941 O   0  0  0  0  0  0  0  0  0  0  0  0
   11.8991   -0.6837   23.2106 C   0  0  1  0  0  0  0  0  0  0  0  0
   10.5194   -1.1598   22.7552 C   0  0  1  0  0  0  0  0  0  0  0  0
    9.7989   -2.3189   23.9694 S   0  0  0  0  0  0  0  0  0  0  0  0
    6.1938   -1.3136   22.5226 C   0  0  0  0  0  0  0  0  0  0  0  0
    6.2626   -4.9007   20.9145 S   0  0  0  0  0  0  0  0  0  0  0  0
    7.7045   -5.6542   21.3662 C   0  0  0  0  0  0  0  0  0  0  0  0
    8.4388   -4.7990   22.1922 C   0  0  0  0  0  0  0  0  0  0  0  0
    9.7294   -5.2139   22.7627 C   0  0  0  0  0  0  0  0  0  0  0  0
   10.9078   -5.0579   22.0203 C   0  0  0  0  0  0  0  0  0  0  0  0
   12.1363   -5.4457   22.5627 C   0  0  0  0  0  0  0  0  0  0  0  0
   12.1984   -5.9937   23.8531 C   0  0  0  0  0  0  0  0  0  0  0  0
   13.5133   -6.4354   24.4231 C   0  0  1  0  0  0  0  0  0  0  0  0
   11.0122   -6.1885   24.5777 C   0  0  0  0  0  0  0  0  0  0  0  0
    9.7835   -5.8009   24.0349 C   0  0  0  0  0  0  0  0  0  0  0  0
   12.9082   -2.5907   25.4740 H   0  0  0  0  0  0  0  0  0  0  0  0
   11.7849   -0.0598   24.1232 H   0  0  0  0  0  0  0  0  0  0  0  0
   12.3561   -0.0474   22.4223 H   0  0  0  0  0  0  0  0  0  0  0  0
    9.8387   -0.2922   22.6170 H   0  0  0  0  0  0  0  0  0  0  0  0
   10.6313   -1.6736   21.7765 H   0  0  0  0  0  0  0  0  0  0  0  0
    5.5704   -0.4319   22.5757 H   0  0  0  0  0  0  0  0  0  0  0  0
    8.0043   -6.6515   21.0718 H   0  0  0  0  0  0  0  0  0  0  0  0
   10.8759   -4.6246   21.0281 H   0  0  0  0  0  0  0  0  0  0  0  0
   13.0389   -5.3135   21.9789 H   0  0  0  0  0  0  0  0  0  0  0  0
   14.2930   -5.6631   24.2516 H   0  0  0  0  0  0  0  0  0  0  0  0
   13.4299   -6.6010   25.5184 H   0  0  0  0  0  0  0  0  0  0  0  0
   13.8274   -7.3822   23.9362 H   0  0  0  0  0  0  0  0  0  0  0  0
   11.0387   -6.6367   25.5632 H   0  0  0  0  0  0  0  0  0  0  0  0
    8.8764   -5.9477   24.6084 H   0  0  0  0  0  0  0  0  0  0  0  0
  1  2  1  0
  2  3  2  0
  3  4  1  0
  1  5  2  0
  6  7  2  0
  7  8  1  0
  7  9  1  0
  9 10  1  0
  3 11  1  0
 10 11  1  0
  4 12  2  0
  5 12  1  0
  1 13  1  0
 13 14  1  0
  2 15  1  0
 14 15  2  0
 15 16  1  0
 16 17  2  0
 17 18  1  0
 18 19  2  0
 19 20  1  0
 19 21  1  0
 16 22  1  0
 21 22  2  0
  8 23  1  0
  9 24  1  1
  9 25  1  0
 10 26  1  6
 10 27  1  0
 12 28  1  0
 14 29  1  0
 17 30  1  0
 18 31  1  0
 20 32  1  1
 20 33  1  0
 20 34  1  0
 21 35  1  0
 22 36  1  0
M  END
