7P4V_DAT_A_201
     RDKit          3D

 26 28  0  0  0  0  0  0  0  0999 V2000
   26.9235   -8.0777    8.2002 P   0  0  1  0  0  0  0  0  0  0  0  0
   25.7782   -9.0570    8.2434 O   0  0  0  0  0  0  0  0  0  0  0  0
   26.5868   -6.7093    9.1631 O   0  0  0  0  0  0  0  0  0  0  0  0
   28.2584   -8.8740    8.9054 O   0  0  0  0  0  0  0  0  0  0  0  0
   27.8267   -8.9593    5.6908 P   0  0  1  0  0  0  0  0  0  0  0  0
   27.1684  -10.1987    6.2766 O   0  0  0  0  0  0  0  0  0  0  0  0
   27.2047   -8.7504    4.1356 O   0  0  0  0  0  0  0  0  0  0  0  0
   27.3700   -7.6637    6.6412 O   0  0  0  0  0  0  0  0  0  0  0  0
   29.5116   -9.1468    5.6308 O   0  0  0  0  0  0  0  0  0  0  0  0
   30.0171   -8.7441    4.3974 C   0  0  0  0  0  0  0  0  0  0  0  0
   31.5044   -8.5712    4.5772 C   0  0  1  0  0  0  0  0  0  0  0  0
   32.1627   -9.7056    4.9602 O   0  0  0  0  0  0  0  0  0  0  0  0
   32.1836   -8.1191    3.3028 C   0  0  1  0  0  0  0  0  0  0  0  0
   31.9583   -6.8022    2.9937 O   0  0  0  0  0  0  0  0  0  0  0  0
   33.6322   -8.3891    3.7327 C   0  0  0  0  0  0  0  0  0  0  0  0
   33.4060   -9.7621    4.3273 C   0  0  2  0  0  0  0  0  0  0  0  0
   33.3479  -10.8154    3.3565 N   0  0  0  0  0  0  0  0  0  0  0  0
   32.2502  -11.1987    2.6440 C   0  0  0  0  0  0  0  0  0  0  0  0
   32.5621  -12.2135    1.8313 N   0  0  0  0  0  0  0  0  0  0  0  0
   33.8495  -12.5192    1.9847 C   0  0  0  0  0  0  0  0  0  0  0  0
   34.6385  -13.4804    1.3798 C   0  0  0  0  0  0  0  0  0  0  0  0
   34.1437  -14.3836    0.3989 N   0  0  0  0  0  0  0  0  0  0  0  0
   35.9283  -13.5266    1.7685 N   0  0  0  0  0  0  0  0  0  0  0  0
   36.4343  -12.6875    2.6954 C   0  0  0  0  0  0  0  0  0  0  0  0
   35.6243  -11.7525    3.2697 N   0  0  0  0  0  0  0  0  0  0  0  0
   34.3387  -11.6473    2.9357 C   0  0  0  0  0  0  0  0  0  0  0  0
  1  2  2  0
  1  3  1  1
  1  4  1  0
  5  6  2  0
  5  7  1  6
  1  8  1  0
  5  8  1  0
  5  9  1  0
  9 10  1  0
 11 10  1  6
 11 12  1  0
 11 13  1  0
 13 14  1  1
 13 15  1  0
 12 16  1  0
 15 16  1  0
 16 17  1  6
 17 18  1  0
 18 19  2  0
 19 20  1  0
 20 21  2  0
 21 22  1  0
 21 23  1  0
 23 24  2  0
 24 25  1  0
 17 26  1  0
 20 26  1  0
 25 26  2  0
M  END
$$$$
