7N7H_CTP_A_303
     RDKit          3D

 29 30  0  0  0  0  0  0  0  0999 V2000
    9.1853   49.3893  153.2702 N   0  0  0  0  0  0  0  0  0  0  0  0
   10.3295   50.1252  153.4602 C   0  0  0  0  0  0  0  0  0  0  0  0
   10.6191   50.5408  154.7164 N   0  0  0  0  0  0  0  0  0  0  0  0
    9.7498   50.2223  155.7345 C   0  0  0  0  0  0  0  0  0  0  0  0
    8.5395   49.5745  155.5203 C   0  0  0  0  0  0  0  0  0  0  0  0
    8.2962   49.1265  154.2556 C   0  0  0  0  0  0  0  0  0  0  0  0
   11.1296   50.3804  152.5160 O   0  0  0  0  0  0  0  0  0  0  0  0
   10.1596   50.6228  156.9608 N   0  0  0  0  0  0  0  0  0  0  0  0
    8.9153   48.9336  151.9114 C   0  0  1  0  0  0  0  0  0  0  0  0
    8.9664   47.4052  151.6890 C   0  0  2  0  0  0  0  0  0  0  0  0
   10.3007   46.9057  151.6295 O   0  0  0  0  0  0  0  0  0  0  0  0
    8.0717   47.2331  150.4613 C   0  0  1  0  0  0  0  0  0  0  0  0
    7.0413   48.3672  150.5398 C   0  0  2  0  0  0  0  0  0  0  0  0
    7.5217   49.2192  151.5830 O   0  0  0  0  0  0  0  0  0  0  0  0
    8.8432   47.4256  149.2634 O   0  0  0  0  0  0  0  0  0  0  0  0
    5.6995   47.8595  151.0529 C   0  0  0  0  0  0  0  0  0  0  0  0
    4.7077   48.4575  150.2537 O   0  0  0  0  0  0  0  0  0  0  0  0
    3.1979   47.9531  150.2274 P   0  0  2  0  0  0  0  0  0  0  0  0
    2.4428   48.8098  149.3293 O   0  0  0  0  0  0  0  0  0  0  0  0
    2.7293   47.8160  151.6491 O   0  0  0  0  0  0  0  0  0  0  0  0
    3.3592   46.4379  149.5952 O   0  0  0  0  0  0  0  0  0  0  0  0
    2.2658   45.3665  149.1722 P   0  0  1  0  0  0  0  0  0  0  0  0
    1.9779   45.4443  147.6946 O   0  0  0  0  0  0  0  0  0  0  0  0
    2.7587   44.0687  149.7567 O   0  0  0  0  0  0  0  0  0  0  0  0
    1.0569   45.9011  150.0437 O   0  0  0  0  0  0  0  0  0  0  0  0
   -0.4426   45.2781  150.2992 P   0  0  2  0  0  0  0  0  0  0  0  0
   -1.3837   46.0748  149.4263 O   0  0  0  0  0  0  0  0  0  0  0  0
   -0.6553   45.4649  151.7844 O   0  0  0  0  0  0  0  0  0  0  0  0
   -0.3699   43.8279  149.9206 O   0  0  0  0  0  0  0  0  0  0  0  0
  1  2  1  0
  2  3  1  0
  3  4  2  0
  4  5  1  0
  1  6  1  0
  5  6  2  0
  2  7  2  0
  4  8  1  0
  9  1  1  1
  9 10  1  0
 10 11  1  6
 10 12  1  0
 12 13  1  0
  9 14  1  0
 13 14  1  0
 12 15  1  6
 13 16  1  1
 16 17  1  0
 17 18  1  0
 18 19  2  0
 18 20  1  1
 18 21  1  0
 21 22  1  0
 22 23  2  0
 22 24  1  1
 22 25  1  0
 25 26  1  0
 26 27  2  0
 26 28  1  1
 26 29  1  0
M  END
