7BA0_T5H_A_201
     RDKit          3D

 55 60  0  0  0  0  0  0  0  0999 V2000
  -24.2546    0.9460   -5.5138 C   0  0  0  0  0  0  0  0  0  0  0  0
  -25.3556    1.8888   -5.3545 C   0  0  0  0  0  0  0  0  0  0  0  0
  -25.5809    2.6621   -6.6397 C   0  0  0  0  0  0  0  0  0  0  0  0
  -24.3354    3.3932   -7.0353 C   0  0  0  0  0  0  0  0  0  0  0  0
  -23.1900    2.5061   -7.1700 C   0  0  0  0  0  0  0  0  0  0  0  0
  -22.9318    1.6025   -5.8997 C   0  0  2  0  0  0  0  0  0  0  0  0
  -21.7660    0.5628   -6.0666 C   0  0  2  0  0  0  0  0  0  0  0  0
  -21.5064   -0.0991   -4.7901 C   0  0  0  0  0  0  0  0  0  0  0  0
  -21.7645    0.4804   -3.7126 O   0  0  0  0  0  0  0  0  0  0  0  0
  -20.9260   -1.3085   -4.7305 N   0  0  0  0  0  0  0  0  0  0  0  0
  -20.3372   -1.9758   -5.9475 C   0  0  0  0  0  0  0  0  0  0  0  0
  -20.5761   -3.4661   -5.8554 C   0  0  0  0  0  0  0  0  0  0  0  0
  -20.0710   -4.0489   -4.6187 C   0  0  0  0  0  0  0  0  0  0  0  0
  -20.8123   -3.4124   -3.4553 C   0  0  0  0  0  0  0  0  0  0  0  0
  -20.5728   -1.9077   -3.4209 C   0  0  1  0  0  0  0  0  0  0  0  0
  -19.1666   -1.6577   -3.0107 C   0  0  0  0  0  0  0  0  0  0  0  0
  -18.6862   -2.1276   -1.9931 O   0  0  0  0  0  0  0  0  0  0  0  0
  -18.4535   -0.8402   -3.7926 O   0  0  0  0  0  0  0  0  0  0  0  0
  -17.0419   -0.6639   -3.4733 C   0  0  2  0  0  0  0  0  0  0  0  0
  -16.8593    0.8300   -3.0651 C   0  0  0  0  0  0  0  0  0  0  0  0
  -15.6758    1.0270   -2.0761 C   0  0  0  0  0  0  0  0  0  0  0  0
  -16.2235    1.1415   -0.5977 C   0  0  0  0  0  0  0  0  0  0  0  0
  -16.8501    2.2888   -0.1329 C   0  0  0  0  0  0  0  0  0  0  0  0
  -16.0544    0.0633    0.2498 C   0  0  0  0  0  0  0  0  0  0  0  0
  -16.4954    0.1778    1.5824 C   0  0  0  0  0  0  0  0  0  0  0  0
  -17.1555    1.3340    2.0114 C   0  0  0  0  0  0  0  0  0  0  0  0
  -17.6545    1.5462    3.2754 O   0  0  0  0  0  0  0  0  0  0  0  0
  -16.8499    1.1278    4.3560 C   0  0  0  0  0  0  0  0  0  0  0  0
  -17.3183    2.3783    1.1365 C   0  0  0  0  0  0  0  0  0  0  0  0
  -17.9115    3.4839    1.6688 O   0  0  0  0  0  0  0  0  0  0  0  0
  -17.5980    4.7571    1.1433 C   0  0  0  0  0  0  0  0  0  0  0  0
  -16.2893   -1.1533   -4.6207 C   0  0  0  0  0  0  0  0  0  0  0  0
  -16.4303   -0.5232   -5.8219 C   0  0  0  0  0  0  0  0  0  0  0  0
  -15.3969   -2.2381   -4.5269 C   0  0  0  0  0  0  0  0  0  0  0  0
  -14.6364   -2.6689   -5.6089 C   0  0  0  0  0  0  0  0  0  0  0  0
  -14.8518   -2.0392   -6.8457 C   0  0  0  0  0  0  0  0  0  0  0  0
  -15.7277   -0.9521   -6.9077 C   0  0  0  0  0  0  0  0  0  0  0  0
  -15.8854   -0.2393   -8.1028 O   0  0  0  0  0  0  0  0  0  0  0  0
  -14.7114   -0.0130   -8.8032 C   0  0  0  0  0  0  0  0  0  0  0  0
  -14.8569    1.2257   -9.6910 C   0  0  1  0  0  0  0  0  0  0  0  0
  -16.0320    1.0939  -10.5051 O   0  0  0  0  0  0  0  0  0  0  0  0
  -14.9073    2.5491   -9.0008 C   0  0  1  0  0  0  0  0  0  0  0  0
  -15.0161    3.6518   -9.9395 O   0  0  0  0  0  0  0  0  0  0  0  0
  -15.9777    2.8174   -7.9021 C   0  0  0  0  0  0  0  0  0  0  0  0
  -17.2688    2.9843   -8.5279 O   0  0  0  0  0  0  0  0  0  0  0  0
  -18.3514    2.3976   -7.8749 C   0  0  0  0  0  0  0  0  0  0  0  0
  -19.0495    1.4077   -8.5375 C   0  0  0  0  0  0  0  0  0  0  0  0
  -18.5549    1.0953   -9.7668 O   0  0  0  0  0  0  0  0  0  0  0  0
  -19.0779   -0.1722  -10.3314 C   0  0  0  0  0  0  0  0  0  0  0  0
  -20.1980    0.8624   -7.9216 C   0  0  0  0  0  0  0  0  0  0  0  0
  -20.5596    1.1973   -6.6601 C   0  0  0  0  0  0  0  0  0  0  0  0
  -19.8164    2.1649   -5.9694 C   0  0  0  0  0  0  0  0  0  0  0  0
  -18.7546    2.8100   -6.5944 C   0  0  0  0  0  0  0  0  0  0  0  0
  -17.9984    3.7895   -5.9737 O   0  0  0  0  0  0  0  0  0  0  0  0
  -18.3597    4.1689   -4.6605 C   0  0  0  0  0  0  0  0  0  0  0  0
  1  2  1  0
  2  3  1  0
  3  4  1  0
  4  5  1  0
  6  1  1  6
  5  6  1  0
  7  6  1  0
  7  8  1  1
  8  9  2  0
  8 10  1  0
 10 11  1  0
 11 12  1  0
 12 13  1  0
 13 14  1  0
 15 14  1  6
 10 15  1  0
 15 16  1  0
 16 17  2  0
 16 18  1  0
 18 19  1  0
 19 20  1  6
 20 21  1  0
 21 22  1  0
 22 23  2  0
 22 24  1  0
 24 25  2  0
 25 26  1  0
 26 27  1  0
 27 28  1  0
 26 29  2  0
 23 29  1  0
 29 30  1  0
 30 31  1  0
 19 32  1  0
 32 33  2  0
 32 34  1  0
 34 35  2  0
 35 36  1  0
 36 37  2  0
 33 37  1  0
 37 38  1  0
 38 39  1  0
 39 40  1  0
 40 41  1  1
 40 42  1  0
 42 43  1  6
 42 44  1  0
 44 45  1  0
 45 46  1  0
 46 47  2  0
 47 48  1  0
 48 49  1  0
 47 50  1  0
  7 51  1  0
 50 51  2  0
 51 52  1  0
 52 53  2  0
 46 53  1  0
 53 54  1  0
 54 55  1  0
M  END
