7KB1_WBJ_B_501
     RDKit          3D

 22 22  0  0  0  0  0  0  0  0999 V2000
    9.6251  -19.1089   56.3792 C   0  0  0  0  0  0  0  0  0  0  0  0
   14.0505  -19.5990   52.7416 C   0  0  0  0  0  0  0  0  0  0  0  0
   15.4086  -15.1700   54.4724 C   0  0  0  0  0  0  0  0  0  0  0  0
   12.5058  -13.8393   56.5196 C   0  0  0  0  0  0  0  0  0  0  0  0
   13.6644  -13.9550   55.9199 C   0  0  0  0  0  0  0  0  0  0  0  0
   14.1339  -15.0913   55.1703 C   0  0  0  0  0  0  0  0  0  0  0  0
   13.4254  -17.0490   53.9538 C   0  0  0  0  0  0  0  0  0  0  0  0
   12.6511  -18.2697   54.2481 C   0  0  0  0  0  0  0  0  0  0  0  0
   11.5767  -18.1289   55.1285 C   0  0  0  0  0  0  0  0  0  0  0  0
   10.7767  -19.2018   55.4445 C   0  0  0  0  0  0  0  0  0  0  0  0
   12.0871  -20.5334   54.0333 C   0  0  0  0  0  0  0  0  0  0  0  0
   12.9264  -19.5135   53.6728 C   0  0  0  0  0  0  0  0  0  0  0  0
   13.3768  -16.1477   55.0869 N   0  0  0  0  0  0  0  0  0  0  0  0
   11.0466  -20.3842   54.8904 N   0  0  0  0  0  0  0  0  0  0  0  0
   11.3010  -16.9001   55.6976 O   0  0  0  0  0  0  0  0  0  0  0  0
   15.2750  -19.5675   53.3818 O   0  0  0  0  0  0  0  0  0  0  0  0
   16.8330  -21.1923   51.8642 O   0  0  0  0  0  0  0  0  0  0  0  0
   16.4195  -18.6203   50.9921 O   0  0  0  0  0  0  0  0  0  0  0  0
   17.8386  -19.1903   53.1165 O   0  0  0  0  0  0  0  0  0  0  0  0
   16.3013  -14.1144   54.3539 O   0  0  0  0  0  0  0  0  0  0  0  0
   15.7761  -16.2524   53.9166 O   0  0  0  0  0  0  0  0  0  0  0  0
   16.5845  -19.5700   52.3558 P   0  0  1  0  0  0  0  0  0  0  0  0
  4  5  2  0
  5  6  1  0
  3  6  1  0
  7  8  1  0
  8  9  2  0
  1 10  1  0
  9 10  1  0
 11 12  2  0
  2 12  1  0
  8 12  1  0
  7 13  1  0
  6 13  2  0
 11 14  1  0
 10 14  2  0
  9 15  1  0
  2 16  1  0
  3 20  1  0
  3 21  2  0
 19 22  2  0
 16 22  1  0
 22 17  1  6
 18 22  1  0
M  END
$$$$
