7UAW_MF6_B_201
     RDKit          3D

 35 39  0  0  0  0  0  0  0  0999 V2000
  -29.1747   24.0037  -17.6406 C   0  0  2  0  0  0  0  0  0  0  0  0
  -32.4033   21.8284  -21.5088 C   0  0  1  0  0  0  0  0  0  0  0  0
  -34.1348   20.0595  -21.1017 C   0  0  0  0  0  0  0  0  0  0  0  0
  -26.9420   19.5488  -24.7233 C   0  0  0  0  0  0  0  0  0  0  0  0
  -26.3904   19.1144  -22.4768 C   0  0  0  0  0  0  0  0  0  0  0  0
  -28.5677   19.8627  -22.9496 C   0  0  0  0  0  0  0  0  0  0  0  0
  -28.2032   19.8997  -24.2803 C   0  0  0  0  0  0  0  0  0  0  0  0
  -30.2802   20.5392  -24.0863 C   0  0  0  0  0  0  0  0  0  0  0  0
  -30.6163   20.3627  -21.6216 C   0  0  2  0  0  0  0  0  0  0  0  0
  -30.9089   21.7683  -21.2003 C   0  0  2  0  0  0  0  0  0  0  0  0
  -29.7141   22.5113  -19.3470 C   0  0  2  0  0  0  0  0  0  0  0  0
  -29.3691   22.5745  -17.1348 C   0  0  1  0  0  0  0  0  0  0  0  0
  -30.0040   23.9123  -18.9068 C   0  0  2  0  0  0  0  0  0  0  0  0
  -32.7306   20.4520  -20.9456 C   0  0  1  0  0  0  0  0  0  0  0  0
  -30.7255   22.4725  -16.4907 C   0  0  0  0  0  0  0  0  0  0  0  0
  -26.6481   19.6143  -26.1064 N   0  0  0  0  0  0  0  0  0  0  0  0
  -26.0499   19.1576  -23.7945 N   0  0  0  0  0  0  0  0  0  0  0  0
  -27.6293   19.4613  -22.0609 N   0  0  0  0  0  0  0  0  0  0  0  0
  -29.2720   20.3171  -24.9476 N   0  0  0  0  0  0  0  0  0  0  0  0
  -29.8496   20.2590  -22.8435 N   0  0  0  0  0  0  0  0  0  0  0  0
  -30.8100   21.8500  -19.8304 O   0  0  0  0  0  0  0  0  0  0  0  0
  -29.2166   21.8044  -18.2662 O   0  0  0  0  0  0  0  0  0  0  0  0
  -27.8290   24.1390  -17.9609 O   0  0  0  0  0  0  0  0  0  0  0  0
  -29.6792   24.8834  -19.8412 O   0  0  0  0  0  0  0  0  0  0  0  0
  -33.0443   22.8477  -20.8274 O   0  0  0  0  0  0  0  0  0  0  0  0
  -34.8652   20.6707  -20.0584 O   0  0  0  0  0  0  0  0  0  0  0  0
  -36.0800   19.1399  -18.1587 O   0  0  0  0  0  0  0  0  0  0  0  0
  -34.2904   21.0574  -17.3527 O   0  0  0  0  0  0  0  0  0  0  0  0
  -32.7615   20.9835  -15.0243 O   0  0  0  0  0  0  0  0  0  0  0  0
  -31.7351   22.0808  -17.3532 O   0  0  0  0  0  0  0  0  0  0  0  0
  -32.1497   19.5307  -17.0973 O   0  0  0  0  0  0  0  0  0  0  0  0
  -33.5687   18.8383  -18.6140 O   0  0  0  0  0  0  0  0  0  0  0  0
  -31.8337   19.6899  -21.7105 O   0  0  0  0  0  0  0  0  0  0  0  0
  -34.6353   19.9348  -18.5765 P   0  0  2  0  0  0  0  0  0  0  0  0
  -32.7329   20.8784  -16.7310 P   0  0  2  0  0  0  0  0  0  0  0  0
  6  7  1  0
  4  7  2  0
  2 10  1  0
  9 10  1  0
  1 12  1  0
 11 13  1  0
  1 13  1  0
  2 14  1  0
 14  3  1  6
 12 15  1  6
  4 16  1  0
  4 17  1  0
  5 17  2  0
  6 18  2  0
  5 18  1  0
  8 19  2  0
  7 19  1  0
  9 20  1  6
  8 20  1  0
  6 20  1  0
 10 21  1  1
 11 21  1  1
 11 22  1  0
 12 22  1  0
  1 23  1  6
 13 24  1  6
  2 25  1  1
  3 26  1  0
 15 30  1  0
 14 33  1  0
  9 33  1  0
 26 34  1  0
 32 34  2  0
 28 34  1  0
 34 27  1  1
 28 35  1  0
 30 35  1  0
 31 35  2  0
 35 29  1  1
M  END
$$$$
