7DIN_MPO_A_201
     RDKit          3D

 28 28  0  0  0  0  0  0  0  0999 V2000
   28.5513   -0.7681  -11.4432 S   0  0  1  0  0  6  0  0  0  0  0  0
   29.3575   -1.7041  -10.7013 O   0  0  0  0  0  0  0  0  0  0  0  0
   27.6643   -0.0314  -10.5581 O   0  0  0  0  0  0  0  0  0  0  0  0
   26.5826   -2.1233  -10.8578 O   0  0  0  0  0  0  0  0  0  0  0  0
   27.8077    0.3996  -10.3157 N   0  0  0  0  0  0  0  0  0  0  0  0
   29.6520    0.4326  -12.1160 C   0  0  0  0  0  0  0  0  0  0  0  0
   27.8392   -1.3427  -12.5577 O   0  0  0  0  0  0  0  0  0  0  0  0
   29.3554    1.8180  -11.6151 C   0  0  0  0  0  0  0  0  0  0  0  0
   28.1688    1.7730  -10.6858 C   0  0  0  0  0  0  0  0  0  0  0  0
   28.3993   -0.5707  -11.2423 C   0  0  0  0  0  0  0  0  0  0  0  0
   27.9987   -1.9673  -10.8416 C   0  0  0  0  0  0  0  0  0  0  0  0
   25.9995   -1.2015   -9.9346 C   0  0  0  0  0  0  0  0  0  0  0  0
   26.3514    0.2270  -10.2803 C   0  0  0  0  0  0  0  0  0  0  0  0
   29.5609    0.4247  -13.1821 H   0  0  0  0  0  0  0  0  0  0  0  0
   30.6445    0.1775  -11.8083 H   0  0  0  0  0  0  0  0  0  0  0  0
   27.2178   -2.0132  -12.2333 H   0  0  0  0  0  0  0  0  0  0  0  0
   29.1349    2.4574  -12.4442 H   0  0  0  0  0  0  0  0  0  0  0  0
   30.2065    2.1970  -11.0888 H   0  0  0  0  0  0  0  0  0  0  0  0
   28.4065    2.3186   -9.7965 H   0  0  0  0  0  0  0  0  0  0  0  0
   27.3344    2.2063  -11.1967 H   0  0  0  0  0  0  0  0  0  0  0  0
   29.4655   -0.4849  -11.2140 H   0  0  0  0  0  0  0  0  0  0  0  0
   28.0483   -0.3726  -12.2334 H   0  0  0  0  0  0  0  0  0  0  0  0
   28.4343   -2.6649  -11.5261 H   0  0  0  0  0  0  0  0  0  0  0  0
   28.3474   -2.1467   -9.8461 H   0  0  0  0  0  0  0  0  0  0  0  0
   26.3598   -1.4199   -8.9511 H   0  0  0  0  0  0  0  0  0  0  0  0
   24.9356   -1.3059   -9.9830 H   0  0  0  0  0  0  0  0  0  0  0  0
   25.9441    0.4683  -11.2398 H   0  0  0  0  0  0  0  0  0  0  0  0
   25.9425    0.8758   -9.5342 H   0  0  0  0  0  0  0  0  0  0  0  0
  1  2  2  0
  1  3  2  0
  1  6  1  0
  1  7  1  6
  6  8  1  0
  5  9  1  0
  8  9  1  0
  5 10  1  0
  4 11  1  0
 10 11  1  0
  4 12  1  0
  5 13  1  0
 12 13  1  0
  6 14  1  0
  6 15  1  0
  7 16  1  0
  8 17  1  0
  8 18  1  0
  9 19  1  0
  9 20  1  0
 10 21  1  0
 10 22  1  0
 11 23  1  0
 11 24  1  0
 12 25  1  0
 12 26  1  0
 13 27  1  0
 13 28  1  0
M  END
