7WCF_ACP_A_401
     RDKit          3D

 49 51  0  0  0  0  0  0  0  0999 V2000
   10.5319  -10.1811  -23.7082 P   0  0  2  0  0  5  0  0  0  0  0  0
   10.8062  -11.6586  -23.8717 O   0  0  0  0  0  0  0  0  0  0  0  0
    9.9530   -9.8958  -22.1426 O   0  0  0  0  0  0  0  0  0  0  0  0
    9.3633   -9.6995  -24.8350 O   0  0  0  0  0  0  0  0  0  0  0  0
   13.4494   -9.9970  -23.0439 P   0  0  2  0  0  5  0  0  0  0  0  0
   14.1408  -11.0336  -23.9063 O   0  0  0  0  0  0  0  0  0  0  0  0
   12.8206  -10.7663  -21.6740 O   0  0  0  0  0  0  0  0  0  0  0  0
   12.0681   -9.2385  -23.9599 C   0  0  1  0  0  0  0  0  0  0  0  0
   16.1031   -9.2097  -22.9909 P   0  0  2  0  0  5  0  0  0  0  0  0
   16.2513  -10.7137  -22.9017 O   0  0  0  0  0  0  0  0  0  0  0  0
   17.1984   -8.4872  -21.9222 O   0  0  0  0  0  0  0  0  0  0  0  0
   14.5237   -8.7773  -22.5215 O   0  0  0  0  0  0  0  0  0  0  0  0
   16.4241   -8.6727  -24.5784 O   0  0  0  0  0  0  0  0  0  0  0  0
   17.5669   -9.3403  -25.0578 C   0  0  2  0  0  0  0  0  0  0  0  0
   17.7573   -9.0143  -26.5440 C   0  0  1  0  0  0  0  0  0  0  0  0
   18.9211   -9.6670  -27.0121 O   0  0  0  0  0  0  0  0  0  0  0  0
   16.5507   -9.4614  -27.3859 C   0  0  1  0  0  0  0  0  0  0  0  0
   16.1868   -8.4723  -28.3224 O   0  0  0  0  0  0  0  0  0  0  0  0
   17.0509  -10.7222  -28.0518 C   0  0  1  0  0  0  0  0  0  0  0  0
   16.5315  -10.8893  -29.3459 O   0  0  0  0  0  0  0  0  0  0  0  0
   18.5543  -10.5001  -28.0906 C   0  0  2  0  0  0  0  0  0  0  0  0
   19.2705  -11.7757  -28.0150 N   0  0  0  0  0  0  0  0  0  0  0  0
   19.3238  -12.7422  -28.9685 C   0  0  0  0  0  0  0  0  0  0  0  0
   19.9895  -13.8613  -28.5687 N   0  0  0  0  0  0  0  0  0  0  0  0
   20.3493  -13.5571  -27.3065 C   0  0  0  0  0  0  0  0  0  0  0  0
   21.0344  -14.3268  -26.3728 C   0  0  0  0  0  0  0  0  0  0  0  0
   21.5125  -15.6362  -26.6816 N   0  0  0  0  0  0  0  0  0  0  0  0
   21.2363  -13.7875  -25.1328 N   0  0  0  0  0  0  0  0  0  0  0  0
   20.7762  -12.5341  -24.8148 C   0  0  0  0  0  0  0  0  0  0  0  0
   20.1038  -11.7873  -25.7413 N   0  0  0  0  0  0  0  0  0  0  0  0
   19.9130  -12.3211  -26.9728 C   0  0  0  0  0  0  0  0  0  0  0  0
    9.9890   -8.9123  -22.0337 H   0  0  0  0  0  0  0  0  0  0  0  0
    9.6931   -8.8347  -25.1875 H   0  0  0  0  0  0  0  0  0  0  0  0
   13.5586  -10.7468  -21.0119 H   0  0  0  0  0  0  0  0  0  0  0  0
   12.2996   -9.2121  -25.0421 H   0  0  0  0  0  0  0  0  0  0  0  0
   11.9217   -8.1991  -23.6000 H   0  0  0  0  0  0  0  0  0  0  0  0
   17.8083   -7.9646  -22.5027 H   0  0  0  0  0  0  0  0  0  0  0  0
   17.4626  -10.4440  -24.9504 H   0  0  0  0  0  0  0  0  0  0  0  0
   18.4726   -8.9988  -24.5065 H   0  0  0  0  0  0  0  0  0  0  0  0
   17.9068   -7.9158  -26.6381 H   0  0  0  0  0  0  0  0  0  0  0  0
   15.6582   -9.6926  -26.7626 H   0  0  0  0  0  0  0  0  0  0  0  0
   16.6055   -8.6999  -29.1943 H   0  0  0  0  0  0  0  0  0  0  0  0
   16.8100  -11.6059  -27.4134 H   0  0  0  0  0  0  0  0  0  0  0  0
   15.5795  -10.6119  -29.3021 H   0  0  0  0  0  0  0  0  0  0  0  0
   18.8366   -9.9800  -29.0344 H   0  0  0  0  0  0  0  0  0  0  0  0
   18.8686  -12.6441  -29.9460 H   0  0  0  0  0  0  0  0  0  0  0  0
   20.8969  -16.4675  -26.5345 H   0  0  0  0  0  0  0  0  0  0  0  0
   22.4810  -15.7833  -27.0437 H   0  0  0  0  0  0  0  0  0  0  0  0
   20.9464  -12.1342  -23.8245 H   0  0  0  0  0  0  0  0  0  0  0  0
  1  2  2  0
  1  3  1  1
  1  4  1  0
  5  6  2  0
  5  7  1  1
  1  8  1  0
  5  8  1  0
  9 10  2  0
  9 11  1  1
  5 12  1  0
  9 12  1  0
  9 13  1  0
 13 14  1  0
 15 14  1  0
 15 16  1  0
 15 17  1  0
 17 18  1  0
 17 19  1  0
 19 20  1  0
 16 21  1  0
 19 21  1  0
 21 22  1  0
 22 23  1  0
 23 24  2  0
 24 25  1  0
 25 26  2  0
 26 27  1  0
 26 28  1  0
 28 29  2  0
 29 30  1  0
 22 31  1  0
 25 31  1  0
 30 31  2  0
  3 32  1  0
  4 33  1  0
  7 34  1  0
  8 35  1  6
  8 36  1  0
 11 37  1  0
 14 38  1  6
 14 39  1  0
 15 40  1  1
 17 41  1  1
 18 42  1  0
 19 43  1  1
 20 44  1  0
 21 45  1  6
 23 46  1  0
 27 47  1  0
 27 48  1  0
 29 49  1  0
M  END
