7WY1_D0L_B_502
     RDKit          3D

 26 27  0  0  0  0  0  0  0  0999 V2000
  -18.6114  -16.9275  -79.2211 C   0  0  0  0  0  0  0  0  0  0  0  0
  -18.0088  -15.7192  -79.3828 C   0  0  0  0  0  0  0  0  0  0  0  0
  -12.2595  -12.6959  -76.6428 C   0  0  0  0  0  0  0  0  0  0  0  0
  -12.6152  -14.7674  -75.7207 C   0  0  0  0  0  0  0  0  0  0  0  0
  -18.5835  -14.4152  -78.9913 C   0  0  0  0  0  0  0  0  0  0  0  0
  -14.5667  -13.3233  -75.4156 C   0  0  0  0  0  0  0  0  0  0  0  0
  -15.1934  -13.4858  -77.8568 C   0  0  0  0  0  0  0  0  0  0  0  0
  -16.7552  -15.7026  -79.9753 C   0  0  0  0  0  0  0  0  0  0  0  0
  -13.4814  -14.0970  -74.6440 C   0  0  0  0  0  0  0  0  0  0  0  0
  -14.3606  -13.9340  -76.7701 C   0  0  1  0  0  0  0  0  0  0  0  0
  -17.9889  -18.0977  -79.6367 C   0  0  0  0  0  0  0  0  0  0  0  0
  -17.5140  -13.3797  -78.8527 C   0  0  1  0  0  0  0  0  0  0  0  0
  -16.7371  -18.0564  -80.2261 C   0  0  0  0  0  0  0  0  0  0  0  0
  -18.0497  -12.0049  -78.7777 C   0  0  0  0  0  0  0  0  0  0  0  0
  -16.1109  -16.8461  -80.3984 C   0  0  0  0  0  0  0  0  0  0  0  0
  -18.2644  -11.3673  -77.7292 O   0  0  0  0  0  0  0  0  0  0  0  0
  -14.8172  -12.9372  -78.9300 O   0  0  0  0  0  0  0  0  0  0  0  0
  -18.3503  -11.3391  -79.9792 O   0  0  0  0  0  0  0  0  0  0  0  0
  -12.9543  -13.9146  -76.8993 N   0  0  0  0  0  0  0  0  0  0  0  0
  -10.7581  -12.7512  -76.7403 C   0  0  0  0  0  0  0  0  0  0  0  0
  -10.2832  -11.4425  -77.3538 C   0  0  0  0  0  0  0  0  0  0  0  0
   -8.8570  -11.4627  -77.7979 C   0  0  0  0  0  0  0  0  0  0  0  0
   -8.4642  -10.2127  -78.5534 C   0  0  0  0  0  0  0  0  0  0  0  0
   -6.9993  -10.2850  -78.9349 C   0  0  0  0  0  0  0  0  0  0  0  0
   -6.5570   -9.0292  -79.6614 C   0  0  0  0  0  0  0  0  0  0  0  0
  -16.6205  -13.6683  -77.7399 N   0  0  0  0  0  0  0  0  0  0  0  0
  1  2  2  0
  2  5  1  0
  2  8  1  0
  4  9  1  0
  6  9  1  0
  6 10  1  0
 10  7  1  6
  1 11  1  0
 12  5  1  1
 11 13  2  0
 12 14  1  0
 13 15  1  0
  8 15  2  0
 14 16  2  0
  7 17  2  0
 14 18  1  0
  4 19  1  0
  3 19  1  0
 10 19  1  0
  3 20  1  0
 20 21  1  0
 21 22  1  0
 22 23  1  0
 23 24  1  0
 24 25  1  0
  7 26  1  0
 12 26  1  0
M  END
$$$$
