1V48_HA1_A_290
     RDKit          3D

 22 23  0  0  0  0  0  0  0  0999 V2000
   98.9016   27.1993   44.1080 N   0  0  0  0  0  0  0  0  0  0  0  0
   99.0972   25.9264   44.4878 C   0  0  0  0  0  0  0  0  0  0  0  0
   98.3191   25.1528   43.7116 N   0  0  0  0  0  0  0  0  0  0  0  0
   97.6258   25.9043   42.8387 C   0  0  0  0  0  0  0  0  0  0  0  0
   96.7068   25.6603   41.8375 C   0  0  0  0  0  0  0  0  0  0  0  0
   96.3594   24.4725   41.5970 O   0  0  0  0  0  0  0  0  0  0  0  0
   96.1747   26.6816   41.1116 N   0  0  0  0  0  0  0  0  0  0  0  0
   96.5448   27.9398   41.3689 C   0  0  0  0  0  0  0  0  0  0  0  0
   95.9744   29.0056   40.5943 N   0  0  0  0  0  0  0  0  0  0  0  0
   97.4436   28.1835   42.3473 N   0  0  0  0  0  0  0  0  0  0  0  0
   97.9949   27.2108   43.0887 C   0  0  0  0  0  0  0  0  0  0  0  0
   99.5134   28.3885   44.6454 C   0  0  0  0  0  0  0  0  0  0  0  0
   99.0715   28.4828   46.1093 C   0  0  0  0  0  0  0  0  0  0  0  0
   99.9070   29.6081   46.7032 C   0  0  0  0  0  0  0  0  0  0  0  0
   99.4611   29.7604   48.1499 C   0  0  0  0  0  0  0  0  0  0  0  0
  100.2550   30.9300   48.7172 C   0  0  2  0  0  0  0  0  0  0  0  0
  100.3121   31.9609   47.7993 F   0  0  0  0  0  0  0  0  0  0  0  0
  101.5587   30.5540   49.0079 F   0  0  0  0  0  0  0  0  0  0  0  0
   99.3862   31.5310   50.1747 P   0  0  1  0  0  5  0  0  0  0  0  0
  100.1503   32.9212   50.7364 O   0  0  0  0  0  0  0  0  0  0  0  0
   97.9727   31.8796   49.7318 O   0  0  0  0  0  0  0  0  0  0  0  0
   99.3621   30.3023   51.3557 O   0  0  0  0  0  0  0  0  0  0  0  0
  1  2  1  0
  2  3  2  0
  3  4  1  0
  4  5  1  0
  5  6  2  0
  5  7  1  0
  7  8  1  0
  8  9  1  0
  8 10  2  0
  1 11  1  0
  4 11  2  0
 10 11  1  0
 12  1  1  1
 13 12  1  1
 14 13  1  6
 15 14  1  1
 15 16  1  0
 16 17  1  6
 16 18  1  0
 16 19  1  0
 19 20  1  1
 19 21  2  0
 19 22  1  0
M  END
$$$$
