7R3D_APR_AAA_401
     RDKit          3D

 36 39  0  0  0  0  0  0  0  0999 V2000
  -11.2714   13.6448   -4.7842 N   0  0  0  0  0  0  0  0  0  0  0  0
  -12.4098   14.3670   -4.6317 C   0  0  0  0  0  0  0  0  0  0  0  0
  -12.5236   15.5772   -5.2123 N   0  0  0  0  0  0  0  0  0  0  0  0
  -11.5296   16.1209   -5.9603 C   0  0  0  0  0  0  0  0  0  0  0  0
  -10.3577   15.4052   -6.1318 C   0  0  0  0  0  0  0  0  0  0  0  0
  -10.2513   14.1595   -5.5292 C   0  0  0  0  0  0  0  0  0  0  0  0
   -9.0338   13.4502   -5.7253 N   0  0  0  0  0  0  0  0  0  0  0  0
   -9.5648   16.1691   -6.9014 N   0  0  0  0  0  0  0  0  0  0  0  0
  -10.1974   17.3311   -7.2149 C   0  0  0  0  0  0  0  0  0  0  0  0
  -11.4119   17.2993   -6.6321 N   0  0  0  0  0  0  0  0  0  0  0  0
  -12.4053   18.3280   -6.7077 C   0  0  1  0  0  0  0  0  0  0  0  0
  -12.2768   19.2480   -5.5269 C   0  0  2  0  0  0  0  0  0  0  0  0
  -13.4091   19.2082   -4.7004 O   0  0  0  0  0  0  0  0  0  0  0  0
  -12.1156   20.6121   -6.1517 C   0  0  2  0  0  0  0  0  0  0  0  0
  -12.8655   21.5317   -5.4424 O   0  0  0  0  0  0  0  0  0  0  0  0
  -12.4102   19.0651   -7.8640 O   0  0  0  0  0  0  0  0  0  0  0  0
  -12.5941   20.3881   -7.5646 C   0  0  2  0  0  0  0  0  0  0  0  0
  -11.8671   21.3435   -8.4906 C   0  0  0  0  0  0  0  0  0  0  0  0
  -10.5164   21.3845   -8.2657 O   0  0  0  0  0  0  0  0  0  0  0  0
   -9.6085   21.9656   -9.5669 P   0  0  2  0  0  5  0  0  0  0  0  0
   -8.2109   22.2025   -8.9876 O   0  0  0  0  0  0  0  0  0  0  0  0
  -10.3102   23.4051  -10.0733 O   0  0  0  0  0  0  0  0  0  0  0  0
   -9.4087   20.8389  -10.7941 O   0  0  0  0  0  0  0  0  0  0  0  0
   -7.9465   20.0100  -10.7155 P   0  0  1  0  0  5  0  0  0  0  0  0
   -8.0949   19.0379   -9.5409 O   0  0  0  0  0  0  0  0  0  0  0  0
   -7.7466   18.9995  -12.0646 O   0  0  0  0  0  0  0  0  0  0  0  0
   -6.6282   20.9404  -10.3733 O   0  0  0  0  0  0  0  0  0  0  0  0
   -5.6557   21.0625  -11.3262 C   0  0  0  0  0  0  0  0  0  0  0  0
   -3.9850   21.6470   -9.8181 O   0  0  0  0  0  0  0  0  0  0  0  0
   -1.9763   21.0404   -9.0160 O   0  0  0  0  0  0  0  0  0  0  0  0
   -2.6180   21.8023   -9.9627 C   0  0  1  0  0  0  0  0  0  0  0  0
   -1.1629   21.6746  -11.8825 O   0  0  0  0  0  0  0  0  0  0  0  0
   -2.4019   21.3004  -11.3774 C   0  0  2  0  0  0  0  0  0  0  0  0
   -3.0855   23.3023  -12.3941 O   0  0  0  0  0  0  0  0  0  0  0  0
   -3.5423   22.0060  -12.0854 C   0  0  2  0  0  0  0  0  0  0  0  0
   -4.5798   22.0564  -11.0112 C   0  0  1  0  0  0  0  0  0  0  0  0
  1  2  2  0
  2  3  1  0
  3  4  2  0
  4  5  1  0
  1  6  1  0
  5  6  2  0
  6  7  1  0
  5  8  1  0
  8  9  2  0
  4 10  1  0
  9 10  1  0
 11 10  1  6
 11 12  1  0
 12 13  1  1
 12 14  1  0
 14 15  1  1
 11 16  1  0
 14 17  1  0
 17 16  1  6
 17 18  1  0
 18 19  1  1
 20 19  1  0
 20 21  2  0
 20 22  1  6
 20 23  1  0
 24 23  1  0
 24 25  2  0
 24 26  1  6
 24 27  1  0
 28 27  1  6
 29 31  1  0
 31 30  1  1
 31 33  1  0
 33 32  1  6
 33 35  1  0
 35 34  1  1
 36 28  1  0
 36 29  1  1
 35 36  1  0
M  END
$$$$
