7EPV_FDA_A_401
     RDKit          3D

 88 93  0  0  0  0  0  0  0  0999 V2000
    3.9124   -4.8112    0.1017 P   0  0  2  0  0  5  0  0  0  0  0  0
    5.3609   -4.3527   -0.0092 O   0  0  0  0  0  0  0  0  0  0  0  0
    3.8259   -6.4654   -0.2696 O   0  0  0  0  0  0  0  0  0  0  0  0
    2.9800   -3.9640   -1.0616 O   0  0  0  0  0  0  0  0  0  0  0  0
    2.2150   -2.9852   -0.3912 C   0  0  0  0  0  0  0  0  0  0  0  0
    3.0590   -1.7228   -0.1571 C   0  0  1  0  0  0  0  0  0  0  0  0
    2.3829   -0.8568    0.7259 O   0  0  0  0  0  0  0  0  0  0  0  0
    4.4467   -2.0045    0.4229 C   0  0  1  0  0  0  0  0  0  0  0  0
    5.3774   -2.2589   -0.5970 O   0  0  0  0  0  0  0  0  0  0  0  0
    4.7531   -0.7157    1.1549 C   0  0  1  0  0  0  0  0  0  0  0  0
    5.4209    0.1994    0.3175 O   0  0  0  0  0  0  0  0  0  0  0  0
    3.3558   -0.1859    1.4995 C   0  0  2  0  0  0  0  0  0  0  0  0
    3.0701   -0.3715    2.9212 N   0  0  0  0  0  4  0  0  0  0  0  0
    2.1657    0.3029    3.6867 C   0  0  0  0  0  0  0  0  0  0  0  0
    2.0379   -0.2045    4.9427 N   0  0  0  0  0  0  0  0  0  0  0  0
    2.8990   -1.2448    4.9316 C   0  0  0  0  0  0  0  0  0  0  0  0
    3.1527   -2.1850    5.9204 C   0  0  0  0  0  0  0  0  0  0  0  0
    2.5002   -2.1253    7.1898 N   0  0  0  0  0  0  0  0  0  0  0  0
    4.0325   -3.1965    5.6278 N   0  0  0  0  0  0  0  0  0  0  0  0
    4.6307   -3.2901    4.3957 C   0  0  0  0  0  0  0  0  0  0  0  0
    4.3555   -2.3583    3.4276 N   0  0  0  0  0  0  0  0  0  0  0  0
    3.4999   -1.3500    3.7282 C   0  0  0  0  0  0  0  0  0  0  0  0
    3.2072   -2.3310    1.6956 N   0  0  0  0  0  4  0  0  0  0  0  0
    2.4721   -2.8127    2.7321 C   0  0  0  0  0  0  0  0  0  0  0  0
    2.3648   -2.1379    3.7917 O   0  0  0  0  0  0  0  0  0  0  0  0
    1.8370   -4.0089    2.6237 N   0  0  0  0  0  4  0  0  0  0  0  0
    1.9132   -4.7384    1.4812 C   0  0  0  0  0  0  0  0  0  0  0  0
    1.3119   -5.8444    1.4135 O   0  0  0  0  0  0  0  0  0  0  0  0
    2.6530   -4.2596    0.3881 C   0  0  0  0  0  0  0  0  0  0  0  0
    2.6917   -4.9905   -0.8485 N   0  0  0  0  0  0  0  0  0  0  0  0
    3.4097   -4.4818   -1.9738 C   0  0  0  0  0  0  0  0  0  0  0  0
    3.3954   -5.2077   -3.1784 C   0  0  0  0  0  0  0  0  0  0  0  0
    4.0980   -4.7455   -4.2984 C   0  0  0  0  0  0  0  0  0  0  0  0
    4.0331   -5.5441   -5.5780 C   0  0  0  0  0  0  0  0  0  0  0  0
    4.8041   -3.5186   -4.2164 C   0  0  0  0  0  0  0  0  0  0  0  0
    5.5830   -2.9742   -5.3853 C   0  0  0  0  0  0  0  0  0  0  0  0
    4.8270   -2.8102   -3.0070 C   0  0  0  0  0  0  0  0  0  0  0  0
    4.1242   -3.2667   -1.8694 C   0  0  0  0  0  0  0  0  0  0  0  0
    4.1295   -2.5314   -0.6033 N   0  0  0  0  0  0  0  0  0  0  0  0
    3.3317   -3.0301    0.5153 C   0  0  0  0  0  0  0  0  0  0  0  0
    5.0097   -1.3499   -0.4333 C   0  0  0  0  0  0  0  0  0  0  0  0
    6.0951   -1.5684    0.6582 C   0  0  2  0  0  0  0  0  0  0  0  0
    6.5865   -2.8859    0.5639 O   0  0  0  0  0  0  0  0  0  0  0  0
    5.6305   -1.2551    2.1052 C   0  0  2  0  0  0  0  0  0  0  0  0
    6.4962   -1.8780    3.0248 O   0  0  0  0  0  0  0  0  0  0  0  0
    4.1564   -1.6962    2.3749 C   0  0  2  0  0  0  0  0  0  0  0  0
    4.0551   -3.0943    2.3079 O   0  0  0  0  0  0  0  0  0  0  0  0
    3.1473   -1.0933    1.3930 C   0  0  0  0  0  0  0  0  0  0  0  0
    2.5913   -2.1080    0.5881 O   0  0  0  0  0  0  0  0  0  0  0  0
    2.0464   -3.3834    1.5838 P   0  0  1  0  0  5  0  0  0  0  0  0
    1.7765   -2.8801    2.9861 O   0  0  0  0  0  0  0  0  0  0  0  0
    0.6282   -4.0568    0.9498 O   0  0  0  0  0  0  0  0  0  0  0  0
    3.2520   -4.5795    1.6598 O   0  0  0  0  0  0  0  0  0  0  0  0
    2.8485   -6.6570   -0.3344 H   0  0  0  0  0  0  0  0  0  0  0  0
    1.8565   -3.3406    0.6024 H   0  0  0  0  0  0  0  0  0  0  0  0
    1.3453   -2.7055   -1.0182 H   0  0  0  0  0  0  0  0  0  0  0  0
    3.1660   -1.2007   -1.1344 H   0  0  0  0  0  0  0  0  0  0  0  0
    4.4169   -2.8593    1.1502 H   0  0  0  0  0  0  0  0  0  0  0  0
    6.1927   -2.6076   -0.1552 H   0  0  0  0  0  0  0  0  0  0  0  0
    5.3811   -0.9324    2.0534 H   0  0  0  0  0  0  0  0  0  0  0  0
    5.7270    0.9366    0.9073 H   0  0  0  0  0  0  0  0  0  0  0  0
    3.2926    0.8983    1.2526 H   0  0  0  0  0  0  0  0  0  0  0  0
    1.5728    1.1324    3.3342 H   0  0  0  0  0  0  0  0  0  0  0  0
    1.7826   -1.3830    7.4032 H   0  0  0  0  0  0  0  0  0  0  0  0
    2.7200   -2.8367    7.9162 H   0  0  0  0  0  0  0  0  0  0  0  0
    5.3305   -4.0936    4.1842 H   0  0  0  0  0  0  0  0  0  0  0  0
    3.6485   -1.3975    1.8422 H   0  0  0  0  0  0  0  0  0  0  0  0
    1.2760   -4.3653    3.4308 H   0  0  0  0  0  0  0  0  0  0  0  0
    2.1717   -5.8984   -0.9404 H   0  0  0  0  0  0  0  0  0  0  0  0
    2.8420   -6.1448   -3.2376 H   0  0  0  0  0  0  0  0  0  0  0  0
    3.2882   -5.0870   -6.2610 H   0  0  0  0  0  0  0  0  0  0  0  0
    5.0186   -5.5677   -6.0849 H   0  0  0  0  0  0  0  0  0  0  0  0
    3.7659   -6.6050   -5.3828 H   0  0  0  0  0  0  0  0  0  0  0  0
    5.7329   -1.8786   -5.2825 H   0  0  0  0  0  0  0  0  0  0  0  0
    5.0322   -3.1327   -6.3403 H   0  0  0  0  0  0  0  0  0  0  0  0
    6.5844   -3.4729   -5.4266 H   0  0  0  0  0  0  0  0  0  0  0  0
    5.4057   -1.9021   -2.9714 H   0  0  0  0  0  0  0  0  0  0  0  0
    5.4678   -1.0135   -1.3839 H   0  0  0  0  0  0  0  0  0  0  0  0
    4.3921   -0.4599   -0.1726 H   0  0  0  0  0  0  0  0  0  0  0  0
    6.9372   -0.8824    0.4403 H   0  0  0  0  0  0  0  0  0  0  0  0
    5.8490   -3.4969    0.8269 H   0  0  0  0  0  0  0  0  0  0  0  0
    5.6701   -0.1549    2.2467 H   0  0  0  0  0  0  0  0  0  0  0  0
    6.4417   -1.3550    3.8663 H   0  0  0  0  0  0  0  0  0  0  0  0
    3.8675   -1.3547    3.4051 H   0  0  0  0  0  0  0  0  0  0  0  0
    4.4700   -3.4434    3.1378 H   0  0  0  0  0  0  0  0  0  0  0  0
    3.6627   -0.3162    0.7957 H   0  0  0  0  0  0  0  0  0  0  0  0
    2.3489   -0.5921    1.9837 H   0  0  0  0  0  0  0  0  0  0  0  0
   -0.0268   -3.3150    0.9173 H   0  0  0  0  0  0  0  0  0  0  0  0
  1  2  2  0
  1  3  1  6
  1  4  1  0
  4  5  1  0
  6  5  1  0
  6  7  1  0
  6  8  1  0
  8  9  1  0
  8 10  1  0
 10 11  1  0
  7 12  1  0
 10 12  1  0
 12 13  1  0
 13 14  4  0
 14 15  4  0
 15 16  4  0
 16 17  4  0
 17 18  1  0
 17 19  4  0
 19 20  4  0
 20 21  4  0
 13 22  4  0
 16 22  4  0
 21 22  4  0
 23 24  4  0
 24 25  2  0
 24 26  4  0
 26 27  4  0
 27 28  2  0
 27 29  4  0
 29 30  1  0
 30 31  1  0
 31 32  4  0
 32 33  4  0
 33 34  1  0
 33 35  4  0
 35 36  1  0
 35 37  4  0
 31 38  4  0
 37 38  4  0
 38 39  1  0
 23 40  4  0
 29 40  4  0
 39 40  1  0
 39 41  1  0
 41 42  1  0
 42 43  1  0
 42 44  1  0
 44 45  1  0
 44 46  1  0
 46 47  1  0
 46 48  1  0
 48 49  1  0
 50 49  1  6
 50 51  2  0
 50 52  1  0
  1 53  1  0
 50 53  1  0
  3 54  1  0
  5 55  1  0
  5 56  1  0
  6 57  1  6
  8 58  1  1
  9 59  1  0
 10 60  1  1
 11 61  1  0
 12 62  1  6
 14 63  1  0
 18 64  1  0
 18 65  1  0
 20 66  1  0
 23 67  1  0
 26 68  1  0
 30 69  1  0
 32 70  1  0
 34 71  1  0
 34 72  1  0
 34 73  1  0
 36 74  1  0
 36 75  1  0
 36 76  1  0
 37 77  1  0
 41 78  1  0
 41 79  1  0
 42 80  1  6
 43 81  1  0
 44 82  1  1
 45 83  1  0
 46 84  1  1
 47 85  1  0
 48 86  1  0
 48 87  1  0
 52 88  1  0
M  CHG  3  13   1  23   1  26   1
M  END
