6ZCY_QF8_A_701
     RDKit          3D

 59 63  0  0  0  0  0  0  0  0999 V2000
   -0.7919    2.9026    4.0622 C   0  0  0  0  0  0  0  0  0  0  0  0
   -0.8580    3.7348    2.9459 C   0  0  0  0  0  0  0  0  0  0  0  0
    0.4198    3.7487    2.4283 C   0  0  0  0  0  0  0  0  0  0  0  0
    1.4192   -4.2850    0.2099 N   0  0  0  0  0  4  0  0  0  0  0  0
    4.1617    1.3272    1.7860 C   0  0  0  0  0  0  0  0  0  0  0  0
    3.6616   -0.8566    0.5765 C   0  0  0  0  0  0  0  0  0  0  0  0
    4.0574   -1.7822   -0.4236 C   0  0  0  0  0  0  0  0  0  0  0  0
    3.3395   -2.9750   -0.6304 C   0  0  0  0  0  0  0  0  0  0  0  0
    2.2143   -3.2008    0.1639 C   0  0  0  0  0  0  0  0  0  0  0  0
    1.7964   -2.2964    1.0995 C   0  0  0  0  0  0  0  0  0  0  0  0
    2.4883   -1.1084    1.3310 C   0  0  0  0  0  0  0  0  0  0  0  0
    0.7085   -2.8944    1.7179 C   0  0  0  0  0  0  0  0  0  0  0  0
    1.5473   -5.5007   -0.5817 C   0  0  0  0  0  0  0  0  0  0  0  0
   -0.0718   -2.3901    2.8621 C   0  0  0  0  0  0  0  0  0  0  0  0
   -3.3866    2.4590    2.8474 C   0  0  0  0  0  0  0  0  0  0  0  0
   -3.8030    2.7071    4.2900 C   0  0  0  0  0  0  0  0  0  0  0  0
   -4.3445    4.6285    3.0368 C   0  0  0  0  0  0  0  0  0  0  0  0
   -1.2080   -2.8823    3.0912 O   0  0  0  0  0  0  0  0  0  0  0  0
    0.4255   -1.3309    3.6889 N   0  0  0  0  0  0  0  0  0  0  0  0
    1.7176   -0.7052    3.4394 C   0  0  0  0  0  0  0  0  0  0  0  0
    0.5138   -4.1154    1.1663 N   0  0  0  0  0  0  0  0  0  0  0  0
    4.4503    0.3325    0.7885 N   0  0  0  0  0  0  0  0  0  0  0  0
    5.1797    1.9356    2.4506 N   0  0  0  0  0  0  0  0  0  0  0  0
    4.9329    2.8840    3.3932 C   0  0  0  0  0  0  0  0  0  0  0  0
    3.6197    3.2560    3.6844 C   0  0  0  0  0  0  0  0  0  0  0  0
    2.8789    1.6584    2.0848 N   0  0  0  0  0  0  0  0  0  0  0  0
    2.5754    2.6169    2.9982 C   0  0  0  0  0  0  0  0  0  0  0  0
    1.1964    2.9636    3.2041 N   0  0  0  0  0  4  0  0  0  0  0  0
    0.4692    2.4438    4.1825 N   0  0  0  0  0  0  0  0  0  0  0  0
   -1.8941    2.4409    4.9597 C   0  0  0  0  0  0  0  0  0  0  0  0
   -1.9841    4.4071    2.3533 N   0  0  0  0  0  0  0  0  0  0  0  0
   -3.3301    3.8365    2.2212 C   0  0  1  0  0  0  0  0  0  0  0  0
   -4.4008    4.0408    4.3775 N   0  0  0  0  0  0  0  0  0  0  0  0
    0.7348    4.2586    1.5294 H   0  0  0  0  0  0  0  0  0  0  0  0
    4.9398   -1.5885   -1.0206 H   0  0  0  0  0  0  0  0  0  0  0  0
    3.6623   -3.6944   -1.3710 H   0  0  0  0  0  0  0  0  0  0  0  0
    2.1351   -0.4086    2.0689 H   0  0  0  0  0  0  0  0  0  0  0  0
    1.5841   -5.2459   -1.6617 H   0  0  0  0  0  0  0  0  0  0  0  0
    2.4765   -6.0374   -0.2962 H   0  0  0  0  0  0  0  0  0  0  0  0
    0.6769   -6.1660   -0.4009 H   0  0  0  0  0  0  0  0  0  0  0  0
   -4.1643    1.8509    2.3329 H   0  0  0  0  0  0  0  0  0  0  0  0
   -2.4128    1.9223    2.7960 H   0  0  0  0  0  0  0  0  0  0  0  0
   -2.9073    2.6762    4.9489 H   0  0  0  0  0  0  0  0  0  0  0  0
   -4.5164    1.9236    4.6291 H   0  0  0  0  0  0  0  0  0  0  0  0
   -4.0739    5.7030    3.1036 H   0  0  0  0  0  0  0  0  0  0  0  0
   -5.3441    4.5590    2.5455 H   0  0  0  0  0  0  0  0  0  0  0  0
   -0.1342   -1.0118    4.5098 H   0  0  0  0  0  0  0  0  0  0  0  0
    1.9092    0.0874    4.1951 H   0  0  0  0  0  0  0  0  0  0  0  0
    1.7180   -0.2393    2.4325 H   0  0  0  0  0  0  0  0  0  0  0  0
    2.5247   -1.4639    3.4981 H   0  0  0  0  0  0  0  0  0  0  0  0
    5.3396    0.4378    0.2463 H   0  0  0  0  0  0  0  0  0  0  0  0
    5.7580    3.3539    3.9125 H   0  0  0  0  0  0  0  0  0  0  0  0
    3.4335    4.0138    4.4317 H   0  0  0  0  0  0  0  0  0  0  0  0
   -2.4133    3.3043    5.4146 H   0  0  0  0  0  0  0  0  0  0  0  0
   -1.4748    1.8282    5.7821 H   0  0  0  0  0  0  0  0  0  0  0  0
   -2.6092    1.8127    4.3909 H   0  0  0  0  0  0  0  0  0  0  0  0
   -1.8268    5.3973    2.0512 H   0  0  0  0  0  0  0  0  0  0  0  0
   -3.6465    3.8327    1.1583 H   0  0  0  0  0  0  0  0  0  0  0  0
   -5.4045    3.9485    4.6628 H   0  0  0  0  0  0  0  0  0  0  0  0
  1  2  4  0
  2  3  4  0
  6  7  4  0
  7  8  4  0
  4  9  4  0
  8  9  4  0
  9 10  4  0
 10 11  4  0
  6 11  4  0
 10 12  4  0
  4 13  1  0
 12 14  1  0
 15 16  1  0
 14 18  2  0
 14 19  1  0
 19 20  1  0
 12 21  4  0
  4 21  4  0
  6 22  1  0
  5 22  1  0
  5 23  4  0
 23 24  4  0
 24 25  4  0
  5 26  4  0
 26 27  4  0
 25 27  4  0
  3 28  4  0
 27 28  1  0
  1 29  4  0
 28 29  4  0
  1 30  1  0
  2 31  1  0
 15 32  1  0
 32 31  1  0
 17 32  1  0
 16 33  1  0
 17 33  1  0
  3 34  1  0
  7 35  1  0
  8 36  1  0
 11 37  1  0
 13 38  1  0
 13 39  1  0
 13 40  1  0
 15 41  1  0
 15 42  1  0
 16 43  1  0
 16 44  1  0
 17 45  1  0
 17 46  1  0
 19 47  1  0
 20 48  1  0
 20 49  1  0
 20 50  1  0
 22 51  1  0
 24 52  1  0
 25 53  1  0
 30 54  1  0
 30 55  1  0
 30 56  1  0
 31 57  1  0
 32 58  1  1
 33 59  1  0
M  CHG  2   4   1  28   1
M  END
