7RKW_5TV_A_502
     RDKit          3D

 25 27  0  0  0  0  0  0  0  0999 V2000
   18.4062   -6.2169   15.4825 C   0  0  0  0  0  0  0  0  0  0  0  0
   19.8255   -5.8993   18.5125 C   0  0  0  0  0  0  0  0  0  0  0  0
   19.5053   -6.9209   11.6319 F   0  0  0  0  0  0  0  0  0  0  0  0
   19.0507   -6.6267   12.8545 C   0  0  0  0  0  0  0  0  0  0  0  0
   17.8339   -6.0522   13.1335 C   0  0  0  0  0  0  0  0  0  0  0  0
   17.5310   -5.8322   14.4727 C   0  0  0  0  0  0  0  0  0  0  0  0
   19.5886   -6.8408   15.1214 C   0  0  0  0  0  0  0  0  0  0  0  0
   19.9231   -7.0334   13.8221 C   0  0  0  0  0  0  0  0  0  0  0  0
   18.1798   -6.0891   16.9758 C   0  0  2  0  0  0  0  0  0  0  0  0
   19.1529   -6.6489   17.6147 O   0  0  0  0  0  0  0  0  0  0  0  0
   19.3051   -4.9876   19.1153 O   0  0  0  0  0  0  0  0  0  0  0  0
   21.2565   -6.2513   18.6319 C   0  0  0  0  0  0  0  0  0  0  0  0
   21.7824   -7.3677   18.0196 C   0  0  0  0  0  0  0  0  0  0  0  0
   23.1464   -7.6242   18.1040 C   0  0  0  0  0  0  0  0  0  0  0  0
   23.8115   -9.0395   17.3668 Cl  0  0  0  0  0  0  0  0  0  0  0  0
   24.0031   -6.8368   18.8361 C   0  0  0  0  0  0  0  0  0  0  0  0
   23.4586   -5.7699   19.4620 C   0  0  0  0  0  0  0  0  0  0  0  0
   22.1199   -5.4558   19.3521 C   0  0  0  0  0  0  0  0  0  0  0  0
   24.5271   -4.7418   20.3393 Cl  0  0  0  0  0  0  0  0  0  0  0  0
   16.7886   -6.6738   17.1740 C   0  0  0  0  0  0  0  0  0  0  0  0
   16.2951   -6.3084   18.5362 N   0  0  0  0  0  0  0  0  0  0  0  0
   16.4895   -6.9769   19.7467 C   0  0  0  0  0  0  0  0  0  0  0  0
   15.9020   -6.3705   20.7772 N   0  0  0  0  0  0  0  0  0  0  0  0
   15.3227   -5.2444   20.1961 C   0  0  0  0  0  0  0  0  0  0  0  0
   15.5662   -5.1909   18.8266 C   0  0  0  0  0  0  0  0  0  0  0  0
  3  4  1  0
  4  5  2  0
  5  6  1  0
  1  6  2  0
  1  7  1  0
  4  8  1  0
  7  8  2  0
  1  9  1  0
  9 10  1  0
  2 10  1  0
  2 11  2  0
  2 12  1  0
 12 13  2  0
 13 14  1  0
 14 15  1  0
 14 16  2  0
 16 17  1  0
 12 18  1  0
 17 18  2  0
 17 19  1  0
  9 20  1  6
 20 21  1  0
 21 22  1  0
 22 23  2  0
 23 24  1  0
 21 25  1  0
 24 25  2  0
M  END
