
     RDKit          3D

 44 48  0  0  0  0  0  0  0  0999 V2000
  -22.3757    3.6436   22.6037 C   0  0  0  0  0  0  0  0  0  0  0  0
  -23.2507    2.5522   23.2095 C   0  0  0  0  0  0  0  0  0  0  0  0
  -24.4429    2.2026   22.3251 C   0  0  0  0  0  0  0  0  0  0  0  0
  -23.6177    2.7972   24.6228 N   0  0  0  0  0  0  0  0  0  0  0  0
  -24.5208    3.9287   24.8646 C   0  0  0  0  0  0  0  0  0  0  0  0
  -25.9375    3.4668   25.1716 C   0  0  0  0  0  0  0  0  0  0  0  0
  -23.3193    2.0109   25.7368 C   0  0  0  0  0  0  0  0  0  0  0  0
  -23.8144    0.8998   25.9338 O   0  0  0  0  0  0  0  0  0  0  0  0
  -22.3930    2.4625   26.7823 C   0  0  0  0  0  0  0  0  0  0  0  0
  -22.8895    3.2605   27.8155 C   0  0  0  0  0  0  0  0  0  0  0  0
  -22.0534    3.5852   28.8778 C   0  0  0  0  0  0  0  0  0  0  0  0
  -22.5123    4.3715   29.8608 F   0  0  0  0  0  0  0  0  0  0  0  0
  -20.7485    3.1024   28.9463 C   0  0  0  0  0  0  0  0  0  0  0  0
  -20.2637    2.2715   27.9357 C   0  0  0  0  0  0  0  0  0  0  0  0
  -21.0984    1.9268   26.8683 C   0  0  0  0  0  0  0  0  0  0  0  0
  -20.5718    1.1555   25.8633 O   0  0  0  0  0  0  0  0  0  0  0  0
  -20.0428    1.7693   24.7536 C   0  0  0  0  0  0  0  0  0  0  0  0
  -19.7703    3.1218   24.6362 C   0  0  0  0  0  0  0  0  0  0  0  0
  -19.2020    3.6926   23.5521 N   0  0  0  0  0  0  0  0  0  0  0  0
  -18.8615    2.8456   22.5767 C   0  0  0  0  0  0  0  0  0  0  0  0
  -19.0636    1.5213   22.5747 N   0  0  0  0  0  0  0  0  0  0  0  0
  -19.6760    0.9844   23.6575 C   0  0  0  0  0  0  0  0  0  0  0  0
  -19.9660   -0.3867   23.5704 N   0  0  0  0  0  0  0  0  0  0  0  0
  -20.1888   -1.2475   22.4553 C   0  0  0  0  0  0  0  0  0  0  0  0
  -20.8797   -1.0989   24.4142 C   0  0  0  0  0  0  0  0  0  0  0  0
  -20.6518   -2.3155   23.4850 C   0  0  0  0  0  0  0  0  0  0  0  0
  -19.5776   -3.2758   23.9994 C   0  0  0  0  0  0  0  0  0  0  0  0
  -19.2006   -4.2901   22.9139 C   0  0  0  0  0  0  0  0  0  0  0  0
  -21.9070   -3.0851   23.0674 C   0  0  0  0  0  0  0  0  0  0  0  0
  -21.5442   -4.3784   22.3194 C   0  0  0  0  0  0  0  0  0  0  0  0
  -20.1695   -4.3615   21.8020 N   0  0  0  0  0  0  0  0  0  0  0  0
  -19.8878   -5.5138   20.9282 C   0  0  0  0  0  0  0  0  0  0  0  0
  -19.7267   -6.8419   21.7049 C   0  0  0  0  0  0  0  0  0  0  0  0
  -20.6013   -7.9818   21.1435 C   0  0  0  0  0  0  0  0  0  0  0  0
  -19.7952   -9.0562   20.4186 C   0  0  0  0  0  0  0  0  0  0  0  0
  -18.2537   -7.2577   21.8732 C   0  0  0  0  0  0  0  0  0  0  0  0
  -18.1499   -8.7002   22.3509 C   0  0  0  0  0  0  0  0  0  0  0  0
  -18.7025   -9.6779   21.3025 C   0  0  0  0  0  0  0  0  0  0  0  0
  -19.2412  -10.8467   22.0223 N   0  0  0  0  0  0  0  0  0  0  0  0
  -18.7979  -12.3927   21.5578 S   0  0  0  0  0  6  0  0  0  0  0  0
  -19.0098  -12.4465   20.1298 O   0  0  0  0  0  0  0  0  0  0  0  0
  -17.5054  -12.6847   22.1361 O   0  0  0  0  0  0  0  0  0  0  0  0
  -20.0300  -13.4104   22.3612 C   0  0  0  0  0  0  0  0  0  0  0  0
  -19.7917  -13.5716   23.8485 C   0  0  0  0  0  0  0  0  0  0  0  0
  1  2  1  0
  2  3  1  0
  2  4  1  0
  4  5  1  0
  5  6  1  0
  4  7  1  0
  7  8  2  0
  7  9  1  0
  9 10  4  0
 10 11  4  0
 11 12  1  0
 11 13  4  0
 13 14  4  0
  9 15  4  0
 14 15  4  0
 15 16  1  0
 16 17  1  0
 17 18  4  0
 18 19  4  0
 19 20  4  0
 20 21  4  0
 21 22  4  0
 17 22  4  0
 22 23  1  0
 23 24  1  0
 23 25  1  0
 24 26  1  0
 25 26  1  0
 26 27  1  0
 27 28  1  0
 26 29  1  0
 29 30  1  0
 30 31  1  0
 28 31  1  0
 31 32  1  0
 33 32  1  0
 33 34  1  0
 34 35  1  0
 33 36  1  0
 36 37  1  0
 37 38  1  0
 35 38  1  0
 38 39  1  0
 39 40  1  0
 40 41  2  0
 40 42  2  0
 40 43  1  0
 43 44  1  0
M  END
