7UF2_5SP_A_301
     RDKit          3D

 14 13  0  0  0  0  0  0  0  0999 V2000
   -1.2330   -4.6844   11.5020 O   0  0  0  0  0  0  0  0  0  0  0  0
   -2.1909   -5.5637   11.9375 C   0  0  0  0  0  0  0  0  0  0  0  0
   -3.1694   -4.9049   12.8806 C   0  0  0  0  0  0  0  0  0  0  0  0
   -2.9348   -3.7388   13.1564 O   0  0  0  0  0  0  0  0  0  0  0  0
   -4.3262   -5.6224   13.4283 C   0  0  2  0  0  0  0  0  0  0  0  0
   -5.5119   -4.7541   13.7115 C   0  0  1  0  0  0  0  0  0  0  0  0
   -6.1438   -4.1272   12.5188 C   0  0  0  0  0  0  0  0  0  0  0  0
   -6.2796   -5.0386   11.4722 O   0  0  0  0  0  0  0  0  0  0  0  0
   -6.8479   -4.2791   10.0559 P   0  0  1  0  0  5  0  0  0  0  0  0
   -7.0495   -5.3278    9.0119 O   0  0  0  0  0  0  0  0  0  0  0  0
   -8.3553   -3.5499   10.3500 O   0  0  0  0  0  0  0  0  0  0  0  0
   -5.7569   -3.1322    9.4758 O   0  0  0  0  0  0  0  0  0  0  0  0
   -3.9425   -6.1794   14.6488 O   0  0  0  0  0  0  0  0  0  0  0  0
   -6.4888   -5.6100   14.2700 O   0  0  0  0  0  0  0  0  0  0  0  0
  2  1  1  6
  2  3  1  0
  3  4  2  0
  3  5  1  0
  5  6  1  0
  6  7  1  0
  7  8  1  6
  8  9  1  0
  9 10  2  0
  9 11  1  1
  9 12  1  0
  5 13  1  1
  6 14  1  6
M  END
$$$$
