7BLA_WCS_A_1901
     RDKit          3D

 32 34  0  0  0  0  0  0  0  0999 V2000
   -7.0197    2.9409    6.3478 C   0  0  0  0  0  0  0  0  0  0  0  0
   -6.0626    3.2547    7.3957 C   0  0  0  0  0  0  0  0  0  0  0  0
   -5.5813    3.2420    9.7110 C   0  0  0  0  0  0  0  0  0  0  0  0
   -7.1295    4.1326   12.0108 C   0  0  0  0  0  0  0  0  0  0  0  0
   -6.9930    1.6039   11.2200 O   0  0  0  0  0  0  0  0  0  0  0  0
   -4.9467    2.6244   12.1851 O   0  0  0  0  0  0  0  0  0  0  0  0
   -3.9783    4.0690    8.2515 C   0  0  0  0  0  0  0  0  0  0  0  0
  -12.4309    0.8004   -0.7297 C   0  0  0  0  0  0  0  0  0  0  0  0
  -12.7728    1.1647    1.6245 C   0  0  0  0  0  0  0  0  0  0  0  0
  -11.3629    1.7572    1.6309 C   0  0  0  0  0  0  0  0  0  0  0  0
  -10.8170    1.6775    3.0115 C   0  0  0  0  0  0  0  0  0  0  0  0
   -8.8077    2.3941    4.1992 C   0  0  0  0  0  0  0  0  0  0  0  0
   -7.5798    3.0684    4.0194 C   0  0  0  0  0  0  0  0  0  0  0  0
   -6.7265    3.3265    5.0599 C   0  0  0  0  0  0  0  0  0  0  0  0
   -1.8922    5.0535    9.1071 C   0  0  0  0  0  0  0  0  0  0  0  0
   -0.4468    5.0966    8.6848 C   0  0  0  0  0  0  0  0  0  0  0  0
    0.3504    5.6651    9.8334 C   0  0  0  0  0  0  0  0  0  0  0  0
    2.7436    6.3288   10.2761 C   0  0  0  0  0  0  0  0  0  0  0  0
    3.9310    6.3475    9.5958 C   0  0  0  0  0  0  0  0  0  0  0  0
    3.6521    5.8538    8.3388 C   0  0  0  0  0  0  0  0  0  0  0  0
   -4.8227    3.8092    7.1651 C   0  0  0  0  0  0  0  0  0  0  0  0
   -8.2066    2.2823    6.5545 C   0  0  0  0  0  0  0  0  0  0  0  0
   -9.0723    2.0206    5.4941 C   0  0  0  0  0  0  0  0  0  0  0  0
  -14.6382    0.6018    0.2384 C   0  0  0  0  0  0  0  0  0  0  0  0
  -13.3395    1.1980    0.3016 N   0  0  0  0  0  0  0  0  0  0  0  0
   -6.3960    2.9906    8.6706 N   0  0  0  0  0  0  0  0  0  0  0  0
   -4.3721    3.7804    9.5116 N   0  0  0  0  0  0  0  0  0  0  0  0
   -2.6874    4.6491    7.9764 N   0  0  0  0  0  0  0  0  0  0  0  0
    1.7648    5.8452    9.4814 N   0  0  0  0  0  0  0  0  0  0  0  0
    2.3402    5.5617    8.3051 N   0  0  0  0  0  0  0  0  0  0  0  0
   -9.5475    2.2017    3.1043 O   0  0  0  0  0  0  0  0  0  0  0  0
   -6.1514    2.8454   11.3166 S   0  0  1  0  0  6  0  0  0  0  0  0
  1  2  1  0
 10  9  1  1
 10 11  1  0
 12 13  2  0
 13 14  1  0
  1 14  2  0
 16 15  1  1
 16 17  1  0
 18 19  2  0
 19 20  1  0
  2 21  2  0
  7 21  1  0
  1 22  1  0
 12 23  1  0
 22 23  2  0
 24 25  1  1
  8 25  1  1
  9 25  1  1
  2 26  1  0
  3 26  2  0
  7 27  2  0
  3 27  1  0
 15 28  1  1
  7 28  1  0
 17 29  1  1
 18 29  1  0
 20 30  2  0
 29 30  1  0
 11 31  1  6
 12 31  1  0
 32  3  1  6
  4 32  1  1
  6 32  2  0
  5 32  2  0
M  END
$$$$
