7WL4_JFU_A_201
     RDKit          3D

 57 61  0  0  0  0  0  0  0  0999 V2000
    3.1973   -0.5292    4.6944 F   0  0  0  0  0  0  0  0  0  0  0  0
    2.2894    0.4379    4.9782 C   0  0  0  0  0  0  0  0  0  0  0  0
    2.6958    1.7768    4.9742 C   0  0  0  0  0  0  0  0  0  0  0  0
    1.7810    2.7899    5.2750 C   0  0  0  0  0  0  0  0  0  0  0  0
    2.1785    4.0861    5.2693 F   0  0  0  0  0  0  0  0  0  0  0  0
    0.4580    2.4659    5.5864 C   0  0  0  0  0  0  0  0  0  0  0  0
    0.0472    1.1299    5.5932 C   0  0  0  0  0  0  0  0  0  0  0  0
    0.9565    0.1081    5.2797 C   0  0  0  0  0  0  0  0  0  0  0  0
    0.4159   -1.5715    5.2794 S   0  0  2  0  0  6  0  0  0  0  0  0
    0.9140   -2.2371    4.0279 O   0  0  0  0  0  0  0  0  0  0  0  0
   -1.0847   -1.6530    5.3150 O   0  0  0  0  0  0  0  0  0  0  0  0
    1.0550   -2.4061    6.6606 N   0  0  0  0  0  0  0  0  0  0  0  0
    0.8491   -1.9763    8.0193 C   0  0  0  0  0  0  0  0  0  0  0  0
    0.6201   -2.9113    9.0782 C   0  0  0  0  0  0  0  0  0  0  0  0
    0.3881   -2.4749   10.4055 C   0  0  0  0  0  0  0  0  0  0  0  0
    0.4122   -1.1026   10.6579 C   0  0  0  0  0  0  0  0  0  0  0  0
    0.1667   -0.3884   11.8762 N   0  0  0  0  0  0  0  0  0  0  0  0
   -0.4990   -0.9025   13.0701 C   0  0  0  0  0  0  0  0  0  0  0  0
   -0.4789    0.1390   14.1828 C   0  0  0  0  0  0  0  0  0  0  0  0
    0.2304    0.9896   11.4641 C   0  0  0  0  0  0  0  0  0  0  0  0
   -0.0039    1.9710   12.2176 O   0  0  0  0  0  0  0  0  0  0  0  0
    0.5549    1.0602   10.0404 C   0  0  0  0  0  0  0  0  0  0  0  0
    0.6943    2.0946    9.1181 C   0  0  0  0  0  0  0  0  0  0  0  0
    0.6420   -0.2307    9.6382 C   0  0  0  0  0  0  0  0  0  0  0  0
    0.8517   -0.5968    8.3286 C   0  0  0  0  0  0  0  0  0  0  0  0
    1.0048    0.4013    7.4082 N   0  0  0  0  0  0  0  0  0  0  0  0
    0.9449    1.7340    7.7610 C   0  0  0  0  0  0  0  0  0  0  0  0
    1.1040    2.7428    6.7415 N   0  0  0  0  0  0  0  0  0  0  0  0
    2.3392    3.5312    6.6312 C   0  0  0  0  0  0  0  0  0  0  0  0
    2.5644    3.9712    5.1772 C   0  0  0  0  0  0  0  0  0  0  0  0
    1.4051    4.6913    4.5904 N   0  0  0  0  0  0  0  0  0  0  0  0
    1.6463    6.1417    4.5371 C   0  0  0  0  0  0  0  0  0  0  0  0
    0.1040    4.4089    5.2405 C   0  0  0  0  0  0  0  0  0  0  0  0
    0.0245    2.9762    5.7750 C   0  0  0  0  0  0  0  0  0  0  0  0
    3.7219    2.0289    4.7391 H   0  0  0  0  0  0  0  0  0  0  0  0
   -0.2502    3.2492    5.8241 H   0  0  0  0  0  0  0  0  0  0  0  0
   -0.9799    0.8941    5.8408 H   0  0  0  0  0  0  0  0  0  0  0  0
    1.6888   -3.2136    6.4688 H   0  0  0  0  0  0  0  0  0  0  0  0
    0.6129   -3.9744    8.8879 H   0  0  0  0  0  0  0  0  0  0  0  0
    0.1972   -3.1868   11.1973 H   0  0  0  0  0  0  0  0  0  0  0  0
   -1.5498   -1.1677   12.8271 H   0  0  0  0  0  0  0  0  0  0  0  0
    0.0163   -1.8243   13.4157 H   0  0  0  0  0  0  0  0  0  0  0  0
    0.5688    0.3993   14.4441 H   0  0  0  0  0  0  0  0  0  0  0  0
   -0.9828   -0.2684   15.0844 H   0  0  0  0  0  0  0  0  0  0  0  0
   -1.0131    1.0570   13.8582 H   0  0  0  0  0  0  0  0  0  0  0  0
    0.5893    3.1237    9.4339 H   0  0  0  0  0  0  0  0  0  0  0  0
    2.2730    4.4213    7.2930 H   0  0  0  0  0  0  0  0  0  0  0  0
    3.2147    2.9189    6.9394 H   0  0  0  0  0  0  0  0  0  0  0  0
    2.7474    3.0617    4.5653 H   0  0  0  0  0  0  0  0  0  0  0  0
    3.5005    4.5720    5.1216 H   0  0  0  0  0  0  0  0  0  0  0  0
    1.8287    6.5514    5.5553 H   0  0  0  0  0  0  0  0  0  0  0  0
    0.7739    6.6621    4.0853 H   0  0  0  0  0  0  0  0  0  0  0  0
    2.5265    6.3575    3.8939 H   0  0  0  0  0  0  0  0  0  0  0  0
   -0.0760    5.1044    6.0931 H   0  0  0  0  0  0  0  0  0  0  0  0
   -0.7106    4.5603    4.4999 H   0  0  0  0  0  0  0  0  0  0  0  0
    0.1092    2.2489    4.9390 H   0  0  0  0  0  0  0  0  0  0  0  0
   -0.9650    2.8426    6.2653 H   0  0  0  0  0  0  0  0  0  0  0  0
  1  2  1  0
  2  3  4  0
  3  4  4  0
  4  5  1  0
  4  6  4  0
  6  7  4  0
  2  8  4  0
  7  8  4  0
  8  9  1  0
  9 10  2  0
  9 11  2  0
  9 12  1  1
 12 13  1  0
 13 14  4  0
 14 15  4  0
 15 16  4  0
 16 17  1  0
 17 18  1  0
 18 19  1  0
 17 20  1  0
 20 21  2  0
 20 22  1  0
 22 23  4  0
 16 24  4  0
 22 24  4  0
 13 25  4  0
 24 25  4  0
 25 26  4  0
 26 27  4  0
 23 27  4  0
 27 28  1  0
 28 29  1  0
 29 30  1  0
 30 31  1  0
 31 32  1  0
 31 33  1  0
 33 34  1  0
 28 34  1  0
  3 35  1  0
  6 36  1  0
  7 37  1  0
 12 38  1  0
 14 39  1  0
 15 40  1  0
 18 41  1  0
 18 42  1  0
 19 43  1  0
 19 44  1  0
 19 45  1  0
 23 46  1  0
 29 47  1  0
 29 48  1  0
 30 49  1  0
 30 50  1  0
 32 51  1  0
 32 52  1  0
 32 53  1  0
 33 54  1  0
 33 55  1  0
 34 56  1  0
 34 57  1  0
M  END
