8D39_QDB_A_501
     RDKit          3D

 27 28  0  0  0  0  0  0  0  0999 V2000
   -4.3155   -0.1086    1.6187 C   0  0  0  0  0  0  0  0  0  0  0  0
   -3.8264   -1.3426    2.0532 C   0  0  0  0  0  0  0  0  0  0  0  0
   -2.4725   -1.6553    1.8966 C   0  0  0  0  0  0  0  0  0  0  0  0
   -1.5905   -0.7272    1.3113 C   0  0  0  0  0  0  0  0  0  0  0  0
   -2.0980    0.5055    0.8623 C   0  0  0  0  0  0  0  0  0  0  0  0
   -3.4528    0.8133    1.0214 C   0  0  0  0  0  0  0  0  0  0  0  0
   -0.1558   -1.0517    1.1211 C   0  0  0  0  0  0  0  0  0  0  0  0
    0.3551   -1.7023   -0.1101 C   0  0  0  0  0  0  0  0  0  0  0  0
    0.4603   -0.9884   -1.3161 C   0  0  0  0  0  0  0  0  0  0  0  0
    0.9267   -1.6166   -2.4743 C   0  0  0  0  0  0  0  0  0  0  0  0
    1.2874   -2.9749   -2.4534 C   0  0  0  0  0  0  0  0  0  0  0  0
    1.1660   -3.6924   -1.2518 C   0  0  0  0  0  0  0  0  0  0  0  0
    0.6991   -3.0637   -0.0939 C   0  0  0  0  0  0  0  0  0  0  0  0
    1.7822   -3.6441   -3.6767 C   0  0  0  0  0  0  0  0  0  0  0  0
    0.6597   -0.7639    2.0398 O   0  0  0  0  0  0  0  0  0  0  0  0
    2.9905   -3.5346   -4.0204 O   0  0  0  0  0  0  0  0  0  0  0  0
    0.9167   -4.4026   -4.4609 O   0  0  0  0  0  0  0  0  0  0  0  0
   -5.3640    0.1311    1.7399 H   0  0  0  0  0  0  0  0  0  0  0  0
   -4.4978   -2.0607    2.5062 H   0  0  0  0  0  0  0  0  0  0  0  0
   -2.1195   -2.6268    2.2189 H   0  0  0  0  0  0  0  0  0  0  0  0
   -1.4442    1.2342    0.3991 H   0  0  0  0  0  0  0  0  0  0  0  0
   -3.8338    1.7674    0.6805 H   0  0  0  0  0  0  0  0  0  0  0  0
    0.1677    0.0527   -1.3683 H   0  0  0  0  0  0  0  0  0  0  0  0
    0.9989   -1.0391   -3.3874 H   0  0  0  0  0  0  0  0  0  0  0  0
    1.4312   -4.7412   -1.2044 H   0  0  0  0  0  0  0  0  0  0  0  0
    0.6179   -3.6399    0.8197 H   0  0  0  0  0  0  0  0  0  0  0  0
    1.2453   -4.8650   -5.3003 H   0  0  0  0  0  0  0  0  0  0  0  0
  1  2  4  0
  2  3  4  0
  3  4  4  0
  4  5  4  0
  5  6  4  0
  1  6  4  0
  4  7  1  0
  7  8  1  0
  8  9  4  0
  9 10  4  0
 10 11  4  0
 11 12  4  0
 12 13  4  0
  8 13  4  0
 11 14  1  0
  7 15  2  0
 14 16  2  0
 14 17  1  0
  1 18  1  0
  2 19  1  0
  3 20  1  0
  5 21  1  0
  6 22  1  0
  9 23  1  0
 10 24  1  0
 12 25  1  0
 13 26  1  0
 17 27  1  0
M  END
