8F4J_PHO_D_402
     RDKit          3D

138143  0  0  0  0  0  0  0  0999 V2000
  -57.6042   61.3872  344.3584 C   0  0  0  0  0  0  0  0  0  0  0  0
  -53.9137   64.4279  343.7738 C   0  0  0  0  0  0  0  0  0  0  0  0
  -50.9603   61.0779  345.8625 C   0  0  0  0  0  0  0  0  0  0  0  0
  -54.7108   58.0306  346.6571 C   0  0  0  0  0  0  0  0  0  0  0  0
  -55.5933   62.7323  344.2643 N   0  0  0  0  0  0  0  0  0  0  0  0
  -56.9572   62.4899  343.9410 C   0  0  0  0  0  0  0  0  0  0  0  0
  -57.5510   63.6598  343.1885 C   0  0  1  0  0  0  0  0  0  0  0  0
  -56.4391   64.7418  343.3305 C   0  0  2  0  0  0  0  0  0  0  0  0
  -55.2449   63.9140  343.8042 C   0  0  0  0  0  0  0  0  0  0  0  0
  -56.8525   65.7690  344.3451 C   0  0  0  0  0  0  0  0  0  0  0  0
  -57.8696   63.3408  341.7481 C   0  0  0  0  0  0  0  0  0  0  0  0
  -57.4165   61.9255  341.4415 C   0  0  0  0  0  0  0  0  0  0  0  0
  -56.5787   61.4170  342.5688 C   0  0  0  0  0  0  0  0  0  0  0  0
  -56.6667   61.6992  343.7661 O   0  0  0  0  0  0  0  0  0  0  0  0
  -55.6313   60.5217  342.1682 O   0  0  0  0  0  0  0  0  0  0  0  0
  -52.7380   62.4798  344.7916 N   0  0  0  0  0  4  0  0  0  0  0  0
  -52.8172   63.7529  344.2175 C   0  0  0  0  0  0  0  0  0  0  0  0
  -51.4335   64.2879  344.1799 C   0  0  0  0  0  0  0  0  0  0  0  0
  -50.5941   63.3583  344.7665 C   0  0  0  0  0  0  0  0  0  0  0  0
  -51.4133   62.1703  345.1760 C   0  0  0  0  0  0  0  0  0  0  0  0
  -51.1895   65.6277  343.6482 C   0  0  0  0  0  0  0  0  0  0  0  0
  -49.1840   63.4055  345.0533 C   0  0  0  0  0  0  0  0  0  0  0  0
  -48.5501   64.3960  345.6766 C   0  0  0  0  0  0  0  0  0  0  0  0
  -52.9958   59.6909  345.9877 N   0  0  0  0  0  0  0  0  0  0  0  0
  -51.7066   59.9032  346.2456 C   0  0  0  0  0  0  0  0  0  0  0  0
  -51.1672   58.8002  347.1060 C   0  0  0  0  0  0  0  0  0  0  0  0
  -52.2419   57.9710  347.3798 C   0  0  0  0  0  0  0  0  0  0  0  0
  -53.4265   58.5132  346.6525 C   0  0  0  0  0  0  0  0  0  0  0  0
  -49.7941   58.7217  347.6155 C   0  0  0  0  0  0  0  0  0  0  0  0
  -52.2666   56.7403  348.1919 C   0  0  0  0  0  0  0  0  0  0  0  0
  -51.9184   55.5043  347.3695 C   0  0  0  0  0  0  0  0  0  0  0  0
  -55.7256   59.8311  345.2665 N   0  0  0  0  0  4  0  0  0  0  0  0
  -55.8319   58.6354  346.0149 C   0  0  0  0  0  0  0  0  0  0  0  0
  -57.2160   58.2269  346.0272 C   0  0  0  0  0  0  0  0  0  0  0  0
  -57.9362   59.2527  345.3746 C   0  0  0  0  0  0  0  0  0  0  0  0
  -56.9747   60.2519  344.9697 C   0  0  0  0  0  0  0  0  0  0  0  0
  -57.7897   57.0139  346.6169 C   0  0  0  0  0  0  0  0  0  0  0  0
  -59.2641   59.6937  345.0043 C   0  0  0  0  0  0  0  0  0  0  0  0
  -60.3409   59.1404  345.1585 O   0  0  0  0  0  0  0  0  0  0  0  0
  -59.0970   61.1135  344.3747 C   0  0  1  0  0  0  0  0  0  0  0  0
  -59.8747   62.1059  345.1962 C   0  0  0  0  0  0  0  0  0  0  0  0
  -59.9926   62.1679  346.4146 O   0  0  0  0  0  0  0  0  0  0  0  0
  -60.5104   63.0588  344.4277 O   0  0  0  0  0  0  0  0  0  0  0  0
  -59.7620   64.2321  344.1342 C   0  0  0  0  0  0  0  0  0  0  0  0
  -56.0290   59.1325  342.0648 C   0  0  0  0  0  0  0  0  0  0  0  0
  -55.0171   58.2959  342.7632 C   0  0  0  0  0  0  0  0  0  0  0  0
  -55.2883   57.0184  343.0427 C   0  0  0  0  0  0  0  0  0  0  0  0
  -56.5962   56.4697  342.6434 C   0  0  0  0  0  0  0  0  0  0  0  0
  -54.3365   56.0940  343.7408 C   0  0  0  0  0  0  0  0  0  0  0  0
  -53.2401   56.7761  344.5687 C   0  0  0  0  0  0  0  0  0  0  0  0
  -52.1521   57.3533  343.6698 C   0  0  0  0  0  0  0  0  0  0  0  0
  -52.5907   58.5803  342.8761 C   0  0  1  0  0  0  0  0  0  0  0  0
  -52.9188   58.1903  341.4613 C   0  0  0  0  0  0  0  0  0  0  0  0
  -53.7755   59.3111  343.5106 C   0  0  0  0  0  0  0  0  0  0  0  0
  -55.0823   59.1221  342.7442 C   0  0  0  0  0  0  0  0  0  0  0  0
  -55.1889   57.7852  342.0210 C   0  0  0  0  0  0  0  0  0  0  0  0
  -55.4525   56.6294  342.9837 C   0  0  1  0  0  0  0  0  0  0  0  0
  -56.4385   55.6083  342.4216 C   0  0  0  0  0  0  0  0  0  0  0  0
  -54.1527   55.9210  343.3135 C   0  0  0  0  0  0  0  0  0  0  0  0
  -54.1788   54.4326  343.0320 C   0  0  0  0  0  0  0  0  0  0  0  0
  -55.2621   54.1294  342.0002 C   0  0  0  0  0  0  0  0  0  0  0  0
  -56.2973   55.2437  341.9260 C   0  0  1  0  0  0  0  0  0  0  0  0
  -55.8311   56.4434  342.7158 C   0  0  0  0  0  0  0  0  0  0  0  0
  -56.4890   55.6305  340.4805 C   0  0  0  0  0  0  0  0  0  0  0  0
  -53.7726   65.3752  343.3896 H   0  0  0  0  0  0  0  0  0  0  0  0
  -49.9664   61.0953  346.1398 H   0  0  0  0  0  0  0  0  0  0  0  0
  -54.8809   57.1519  347.1707 H   0  0  0  0  0  0  0  0  0  0  0  0
  -58.4997   63.9675  343.5760 H   0  0  0  0  0  0  0  0  0  0  0  0
  -56.2319   65.2933  342.4372 H   0  0  0  0  0  0  0  0  0  0  0  0
  -57.0770   65.2844  345.2722 H   0  0  0  0  0  0  0  0  0  0  0  0
  -56.0547   66.4669  344.4915 H   0  0  0  0  0  0  0  0  0  0  0  0
  -57.7202   66.2877  343.9944 H   0  0  0  0  0  0  0  0  0  0  0  0
  -58.9244   63.4220  341.5879 H   0  0  0  0  0  0  0  0  0  0  0  0
  -57.3618   64.0291  341.1053 H   0  0  0  0  0  0  0  0  0  0  0  0
  -58.2726   61.2951  341.3204 H   0  0  0  0  0  0  0  0  0  0  0  0
  -56.8414   61.9222  340.5393 H   0  0  0  0  0  0  0  0  0  0  0  0
  -53.5065   61.8765  344.9125 H   0  0  0  0  0  0  0  0  0  0  0  0
  -52.1052   66.0347  343.2730 H   0  0  0  0  0  0  0  0  0  0  0  0
  -50.8120   66.2571  344.4268 H   0  0  0  0  0  0  0  0  0  0  0  0
  -50.4728   65.5718  342.8557 H   0  0  0  0  0  0  0  0  0  0  0  0
  -48.6147   62.6005  344.7486 H   0  0  0  0  0  0  0  0  0  0  0  0
  -49.0765   65.2226  346.0002 H   0  0  0  0  0  0  0  0  0  0  0  0
  -47.5322   64.3374  345.8364 H   0  0  0  0  0  0  0  0  0  0  0  0
  -49.2142   59.5205  347.2025 H   0  0  0  0  0  0  0  0  0  0  0  0
  -49.8043   58.8029  348.6824 H   0  0  0  0  0  0  0  0  0  0  0  0
  -49.3620   57.7843  347.3333 H   0  0  0  0  0  0  0  0  0  0  0  0
  -51.5570   56.8370  348.9869 H   0  0  0  0  0  0  0  0  0  0  0  0
  -53.2593   56.6152  348.5711 H   0  0  0  0  0  0  0  0  0  0  0  0
  -50.9278   55.6041  346.9775 H   0  0  0  0  0  0  0  0  0  0  0  0
  -51.9698   54.6355  347.9920 H   0  0  0  0  0  0  0  0  0  0  0  0
  -52.6133   55.4059  346.5618 H   0  0  0  0  0  0  0  0  0  0  0  0
  -54.8878   60.2785  345.0074 H   0  0  0  0  0  0  0  0  0  0  0  0
  -57.0078   56.4195  347.0415 H   0  0  0  0  0  0  0  0  0  0  0  0
  -58.4873   57.2847  347.3817 H   0  0  0  0  0  0  0  0  0  0  0  0
  -58.2929   56.4519  345.8580 H   0  0  0  0  0  0  0  0  0  0  0  0
  -59.4793   61.1869  343.3780 H   0  0  0  0  0  0  0  0  0  0  0  0
  -60.3545   64.8929  343.5366 H   0  0  0  0  0  0  0  0  0  0  0  0
  -59.4930   64.7213  345.0471 H   0  0  0  0  0  0  0  0  0  0  0  0
  -58.8753   63.9649  343.5981 H   0  0  0  0  0  0  0  0  0  0  0  0
  -56.9868   58.9967  342.5223 H   0  0  0  0  0  0  0  0  0  0  0  0
  -56.0927   58.8462  341.0358 H   0  0  0  0  0  0  0  0  0  0  0  0
  -54.1071   58.7018  343.0314 H   0  0  0  0  0  0  0  0  0  0  0  0
  -57.1701   57.2321  342.1593 H   0  0  0  0  0  0  0  0  0  0  0  0
  -56.4492   55.6518  341.9693 H   0  0  0  0  0  0  0  0  0  0  0  0
  -57.1193   56.1268  343.5115 H   0  0  0  0  0  0  0  0  0  0  0  0
  -54.9054   55.4700  344.3979 H   0  0  0  0  0  0  0  0  0  0  0  0
  -53.8286   55.5568  342.9672 H   0  0  0  0  0  0  0  0  0  0  0  0
  -53.6762   57.5674  345.1417 H   0  0  0  0  0  0  0  0  0  0  0  0
  -52.7966   56.0456  345.2127 H   0  0  0  0  0  0  0  0  0  0  0  0
  -51.3198   57.6290  344.2832 H   0  0  0  0  0  0  0  0  0  0  0  0
  -51.9044   56.5950  342.9568 H   0  0  0  0  0  0  0  0  0  0  0  0
  -51.7677   59.2641  342.8830 H   0  0  0  0  0  0  0  0  0  0  0  0
  -53.7421   57.5068  341.4616 H   0  0  0  0  0  0  0  0  0  0  0  0
  -53.1807   59.0641  340.9021 H   0  0  0  0  0  0  0  0  0  0  0  0
  -52.0670   57.7223  341.0137 H   0  0  0  0  0  0  0  0  0  0  0  0
  -53.9091   58.9415  344.5058 H   0  0  0  0  0  0  0  0  0  0  0  0
  -53.5478   60.3564  343.4957 H   0  0  0  0  0  0  0  0  0  0  0  0
  -55.8931   59.1946  343.4386 H   0  0  0  0  0  0  0  0  0  0  0  0
  -55.1137   59.8837  341.9932 H   0  0  0  0  0  0  0  0  0  0  0  0
  -55.9926   57.8374  341.3166 H   0  0  0  0  0  0  0  0  0  0  0  0
  -54.2551   57.6001  341.5325 H   0  0  0  0  0  0  0  0  0  0  0  0
  -55.8852   57.0565  343.8641 H   0  0  0  0  0  0  0  0  0  0  0  0
  -56.0284   55.1654  341.5381 H   0  0  0  0  0  0  0  0  0  0  0  0
  -56.6185   54.8471  343.1516 H   0  0  0  0  0  0  0  0  0  0  0  0
  -57.3595   56.0969  342.1811 H   0  0  0  0  0  0  0  0  0  0  0  0
  -53.3713   56.3611  342.7299 H   0  0  0  0  0  0  0  0  0  0  0  0
  -53.9931   56.0365  344.3652 H   0  0  0  0  0  0  0  0  0  0  0  0
  -53.2273   54.1247  342.6513 H   0  0  0  0  0  0  0  0  0  0  0  0
  -54.3891   53.9018  343.9369 H   0  0  0  0  0  0  0  0  0  0  0  0
  -54.8043   54.0170  341.0397 H   0  0  0  0  0  0  0  0  0  0  0  0
  -55.7609   53.2299  342.2951 H   0  0  0  0  0  0  0  0  0  0  0  0
  -57.2222   54.9010  342.3408 H   0  0  0  0  0  0  0  0  0  0  0  0
  -54.9057   56.7983  342.3124 H   0  0  0  0  0  0  0  0  0  0  0  0
  -56.5668   57.2180  342.6555 H   0  0  0  0  0  0  0  0  0  0  0  0
  -55.6904   56.1640  343.7390 H   0  0  0  0  0  0  0  0  0  0  0  0
  -55.5589   55.9713  340.0761 H   0  0  0  0  0  0  0  0  0  0  0  0
  -56.8291   54.7809  339.9260 H   0  0  0  0  0  0  0  0  0  0  0  0
  -57.2151   56.4137  340.4142 H   0  0  0  0  0  0  0  0  0  0  0  0
  1  6  1  0
  5  6  2  0
  6  7  1  0
  7  8  1  0
  2  9  2  0
  5  9  1  0
  8  9  1  0
  8 10  1  0
  7 11  1  0
 11 12  1  0
 12 13  1  0
 13 14  2  0
 13 15  1  0
  2 17  1  0
 16 17  4  0
 17 18  4  0
 18 19  4  0
  3 20  1  0
 16 20  4  0
 19 20  4  0
 18 21  1  0
 19 22  1  0
 22 23  2  3
  3 25  2  0
 24 25  1  0
 25 26  1  0
 26 27  2  0
  4 28  1  0
 24 28  2  0
 27 28  1  0
 26 29  1  0
 27 30  1  0
 30 31  1  0
  4 33  2  0
 32 33  4  0
 33 34  4  0
 34 35  4  0
  1 36  2  0
 32 36  4  0
 35 36  4  0
 34 37  1  0
 35 38  1  0
 38 39  2  0
  1 40  1  0
 38 40  1  0
 40 41  1  0
 41 42  2  0
 41 43  1  0
 43 44  1  0
 15 45  1  0
 45 46  1  0
 46 47  2  3
 47 48  1  0
 47 49  1  0
 49 50  1  0
 50 51  1  0
 51 52  1  0
 52 53  1  0
 52 54  1  0
 54 55  1  0
 55 56  1  0
 56 57  1  0
 57 58  1  0
 57 59  1  0
 59 60  1  0
 60 61  1  0
 61 62  1  0
 62 63  1  0
 62 64  1  0
  2 65  1  0
  3 66  1  0
  4 67  1  0
  7 68  1  6
  8 69  1  1
 10 70  1  0
 10 71  1  0
 10 72  1  0
 11 73  1  0
 11 74  1  0
 12 75  1  0
 12 76  1  0
 16 77  1  0
 21 78  1  0
 21 79  1  0
 21 80  1  0
 22 81  1  0
 23 82  1  0
 23 83  1  0
 29 84  1  0
 29 85  1  0
 29 86  1  0
 30 87  1  0
 30 88  1  0
 31 89  1  0
 31 90  1  0
 31 91  1  0
 32 92  1  0
 37 93  1  0
 37 94  1  0
 37 95  1  0
 40 96  1  1
 44 97  1  0
 44 98  1  0
 44 99  1  0
 45100  1  0
 45101  1  0
 46102  1  0
 48103  1  0
 48104  1  0
 48105  1  0
 49106  1  0
 49107  1  0
 50108  1  0
 50109  1  0
 51110  1  0
 51111  1  0
 52112  1  1
 53113  1  0
 53114  1  0
 53115  1  0
 54116  1  0
 54117  1  0
 55118  1  0
 55119  1  0
 56120  1  0
 56121  1  0
 57122  1  6
 58123  1  0
 58124  1  0
 58125  1  0
 59126  1  0
 59127  1  0
 60128  1  0
 60129  1  0
 61130  1  0
 61131  1  0
 62132  1  6
 63133  1  0
 63134  1  0
 63135  1  0
 64136  1  0
 64137  1  0
 64138  1  0
M  CHG  2  16   1  32   1
M  END
