7TXK_LW8_A_601
     RDKit          3D

 15 15  0  0  0  0  0  0  0  0999 V2000
   20.1181   55.2053   77.6956 O   0  0  0  0  0  0  0  0  0  0  0  0
   18.9723   55.1698   77.2027 C   0  0  0  0  0  0  0  0  0  0  0  0
   17.9806   54.9045   77.9479 O   0  0  0  0  0  0  0  0  0  0  0  0
   18.8639   55.4080   75.6823 C   0  0  1  0  0  0  0  0  0  0  0  0
   19.1305   56.8140   75.3401 N   0  0  1  0  0  0  0  0  0  0  0  0
   20.4803   57.2675   75.6166 C   0  0  0  0  0  0  0  0  0  0  0  0
   18.8848   57.0452   73.9164 C   0  0  0  0  0  0  0  0  0  0  0  0
   18.1971   57.6803   76.0841 C   0  0  0  0  0  0  0  0  0  0  0  0
   19.7955   54.4078   74.9615 C   0  0  0  0  0  0  0  0  0  0  0  0
   19.6391   52.9023   75.2996 C   0  0  0  0  0  0  0  0  0  0  0  0
   20.5765   51.9665   75.0998 N   0  0  0  0  0  0  0  0  0  0  0  0
   20.1107   50.7696   75.4881 C   0  0  0  0  0  0  0  0  0  0  0  0
   20.8780   49.3327   75.4313 S   0  0  0  0  0  0  0  0  0  0  0  0
   18.8640   50.9501   75.9358 N   0  0  0  0  0  0  0  0  0  0  0  0
   18.5420   52.2284   75.8336 C   0  0  0  0  0  0  0  0  0  0  0  0
  1  2  1  0
  2  3  2  0
  2  4  1  0
  4  5  1  0
  5  6  1  1
  5  7  1  0
  5  8  1  0
  4  9  1  6
  9 10  1  0
 10 11  1  0
 11 12  1  0
 12 13  2  0
 12 14  1  0
 10 15  2  0
 14 15  1  0
M  CHG  1   5   1
M  END
