7OSO_0V1_A_504
     RDKit          3D

 17 16  0  0  0  0  0  0  0  0999 V2000
   32.0236    5.7050   10.7497 C   0  0  0  0  0  0  0  0  0  0  0  0
   33.1430    6.7493   10.5845 C   0  0  2  0  0  0  0  0  0  0  0  0
   32.6699    7.7832    9.5740 C   0  0  0  0  0  0  0  0  0  0  0  0
   32.2754    9.1084   10.2261 C   0  0  0  0  0  0  0  0  0  0  0  0
   33.3953    9.9804   10.3374 O   0  0  0  0  0  0  0  0  0  0  0  0
   34.3430    6.1023   10.1124 O   0  0  0  0  0  0  0  0  0  0  0  0
   31.8584    4.8505    9.6056 O   0  0  0  0  0  0  0  0  0  0  0  0
   31.1024    6.2214   10.9218 H   0  0  0  0  0  0  0  0  0  0  0  0
   32.2992    5.0778   11.5716 H   0  0  0  0  0  0  0  0  0  0  0  0
   33.3610    7.2219   11.5193 H   0  0  0  0  0  0  0  0  0  0  0  0
   31.8204    7.3909    9.0551 H   0  0  0  0  0  0  0  0  0  0  0  0
   33.4840    7.9804    8.9083 H   0  0  0  0  0  0  0  0  0  0  0  0
   31.8858    8.9142   11.2035 H   0  0  0  0  0  0  0  0  0  0  0  0
   31.5370    9.5814    9.6131 H   0  0  0  0  0  0  0  0  0  0  0  0
   34.0747    9.5650   10.8913 H   0  0  0  0  0  0  0  0  0  0  0  0
   34.1636    5.6677    9.2639 H   0  0  0  0  0  0  0  0  0  0  0  0
   31.6070    5.3853    8.8363 H   0  0  0  0  0  0  0  0  0  0  0  0
  1  2  1  0
  2  3  1  0
  3  4  1  0
  4  5  1  0
  2  6  1  0
  1  7  1  0
  1  8  1  0
  1  9  1  0
  2 10  1  1
  3 11  1  0
  3 12  1  0
  4 13  1  0
  4 14  1  0
  5 15  1  0
  6 16  1  0
  7 17  1  0
M  END
