7A9E_R4W_A_404
     RDKit          3D

  6  5  0  0  0  0  0  0  0  0999 V2000
   14.2986   39.2912    4.2827 C   0  0  0  0  0  0  0  0  0  0  0  0
   11.7134   39.1585    2.5258 C   0  0  0  0  0  0  0  0  0  0  0  0
   11.0971   41.3269    3.7620 O   0  0  0  0  0  0  0  0  0  0  0  0
   13.0920   40.0211    4.7554 C   0  0  0  0  0  0  0  0  0  0  0  0
   13.1722   41.2763    2.5134 O   0  0  0  0  0  0  0  0  0  0  0  0
   12.2402   40.6056    3.3343 S   0  0  1  0  0  0  0  0  0  0  0  0
  1  4  1  0
  3  6  2  0
  4  6  1  0
  6  2  1  6
  5  6  2  0
M  END
