@<TRIPOS>MOLECULE
1OF6_DTY_A_1370
 24 24 0 0 0
SMALL
GASTEIGER

@<TRIPOS>ATOM
      1 N          -3.1664   -0.2726   -1.6820 N.3     1  TYR1       -0.3181
      2 CA         -1.8678   -0.4654   -1.0328 C.3     1  TYR1        0.1072
      3 C          -2.0345   -1.3379    0.1803 C.2     1  TYR1        0.3220
      4 O          -2.8786   -1.0407    1.0685 O.2     1  TYR1       -0.2492
      5 CB         -1.2271    0.8899   -0.6650 C.3     1  TYR1       -0.0020
      6 CG          0.1830    0.7195   -0.1575 C.ar    1  TYR1       -0.0451
      7 CD1         0.4415    0.6677    1.2223 C.ar    1  TYR1       -0.0551
      8 CD2         1.2455    0.5628   -1.0626 C.ar    1  TYR1       -0.0551
      9 CE1         1.7459    0.4776    1.6885 C.ar    1  TYR1       -0.0199
     10 CE2         2.5490    0.3733   -0.5939 C.ar    1  TYR1       -0.0199
     11 CZ          2.8024    0.3310    0.7839 C.ar    1  TYR1        0.1169
     12 OH          4.0968    0.1420    1.2626 O.3     1  TYR1       -0.5068
     13 OXT        -1.2297   -2.4619    0.3386 O.3     1  TYR1       -0.4795
     14 H1         -3.7636    0.3522   -1.0917 H       1  TYR1        0.1190
     15 H2         -3.0143    0.2167   -2.5941 H       1  TYR1        0.1190
     16 HA         -1.1997   -0.9920   -1.7510 H       1  TYR1        0.0577
     17 HB1        -1.8494    1.4128    0.0948 H       1  TYR1        0.0334
     18 HB2        -1.2077    1.5432   -1.5648 H       1  TYR1        0.0334
     19 HD1        -0.3665    0.7706    1.9359 H       1  TYR1        0.0621
     20 HD2         1.0628    0.5852   -2.1299 H       1  TYR1        0.0621
     21 HE1         1.9354    0.4410    2.7537 H       1  TYR1        0.0654
     22 HE2         3.3600    0.2564   -1.3014 H       1  TYR1        0.0654
     23 HH          4.8833    0.0319    0.6331 H       1  TYR1        0.2921
     24 HXT        -1.3174   -3.0525    1.1569 H       1  TYR1        0.2951
@<TRIPOS>BOND
     1     2     1    1
     2     2     3    1
     3     3     4    2
     4     2     5    1
     5     5     6    1
     6     6     7   ar
     7     6     8   ar
     8     7     9   ar
     9     8    10   ar
    10     9    11   ar
    11    10    11   ar
    12    11    12    1
    13     3    13    1
    14     1    14    1
    15     1    15    1
    16     2    16    1
    17     5    17    1
    18     5    18    1
    19     7    19    1
    20     8    20    1
    21     9    21    1
    22    10    22    1
    23    12    23    1
    24    13    24    1
