7PUV_84Z_A_304
     RDKit          3D

 36 37  0  0  0  0  0  0  0  0999 V2000
   17.4889    9.9998  -11.6314 O   0  0  0  0  0  0  0  0  0  0  0  0
   16.6454   10.0599  -12.8744 S   0  0  1  0  0  6  0  0  0  0  0  0
   15.2186   10.2936  -12.4610 O   0  0  0  0  0  0  0  0  0  0  0  0
   17.2236   11.3850  -13.8807 C   0  0  0  0  0  0  0  0  0  0  0  0
   16.4434   12.5383  -14.0525 C   0  0  0  0  0  0  0  0  0  0  0  0
   16.9072   13.5871  -14.8529 C   0  0  0  0  0  0  0  0  0  0  0  0
   18.1525   13.4914  -15.4806 C   0  0  0  0  0  0  0  0  0  0  0  0
   18.9368   12.3476  -15.3063 C   0  0  0  0  0  0  0  0  0  0  0  0
   18.4758   11.2972  -14.5065 C   0  0  0  0  0  0  0  0  0  0  0  0
   16.7479    8.5243  -13.7581 C   0  0  0  0  0  0  0  0  0  0  0  0
   17.8781    7.7202  -13.5485 C   0  0  0  0  0  0  0  0  0  0  0  0
   15.7226    8.0646  -14.6246 C   0  0  0  0  0  0  0  0  0  0  0  0
   14.5165    8.8603  -14.9499 C   0  0  0  0  0  0  0  0  0  0  0  0
   13.3995    8.2207  -15.4977 O   0  0  0  0  0  0  0  0  0  0  0  0
   12.2031    8.9154  -15.8285 C   0  0  1  0  0  0  0  0  0  0  0  0
   14.5080   10.1099  -14.7836 O   0  0  0  0  0  0  0  0  0  0  0  0
   15.8457    6.7954  -15.2156 C   0  0  0  0  0  0  0  0  0  0  0  0
   16.9758    5.9959  -14.9976 C   0  0  0  0  0  0  0  0  0  0  0  0
   17.9997    6.4690  -14.1571 C   0  0  0  0  0  0  0  0  0  0  0  0
   19.4478    5.5256  -13.8205 Cl  0  0  0  0  0  0  0  0  0  0  0  0
   17.0767    4.4101  -15.7774 S   0  0  2  0  0  6  0  0  0  0  0  0
   18.5108    4.0790  -16.0829 O   0  0  0  0  0  0  0  0  0  0  0  0
   16.3068    4.4203  -17.0686 O   0  0  0  0  0  0  0  0  0  0  0  0
   16.4032    3.2061  -14.7345 N   0  0  0  0  0  0  0  0  0  0  0  0
   15.4785   12.6262  -13.5701 H   0  0  0  0  0  0  0  0  0  0  0  0
   16.3016   14.4743  -14.9859 H   0  0  0  0  0  0  0  0  0  0  0  0
   18.5104   14.3038  -16.0997 H   0  0  0  0  0  0  0  0  0  0  0  0
   19.9024   12.2753  -15.7899 H   0  0  0  0  0  0  0  0  0  0  0  0
   19.0942   10.4184  -14.3761 H   0  0  0  0  0  0  0  0  0  0  0  0
   18.6735    8.0628  -12.8991 H   0  0  0  0  0  0  0  0  0  0  0  0
   11.3825    8.1821  -15.9683 H   0  0  0  0  0  0  0  0  0  0  0  0
   11.9285    9.6112  -15.0075 H   0  0  0  0  0  0  0  0  0  0  0  0
   12.3424    9.4841  -16.7722 H   0  0  0  0  0  0  0  0  0  0  0  0
   15.0608    6.4350  -15.8687 H   0  0  0  0  0  0  0  0  0  0  0  0
   17.1132    3.0006  -13.9971 H   0  0  0  0  0  0  0  0  0  0  0  0
   16.2992    2.3348  -15.3014 H   0  0  0  0  0  0  0  0  0  0  0  0
  1  2  2  0
  2  3  2  0
  2  4  1  6
  4  5  2  0
  5  6  1  0
  6  7  2  0
  7  8  1  0
  8  9  2  0
  4  9  1  0
  2 10  1  0
 10 11  2  0
 10 12  1  0
 12 13  1  0
 13 14  1  0
 14 15  1  0
 13 16  2  0
 12 17  2  0
 17 18  1  0
 11 19  1  0
 18 19  2  0
 19 20  1  0
 18 21  1  0
 21 22  2  0
 21 23  2  0
 21 24  1  1
  5 25  1  0
  6 26  1  0
  7 27  1  0
  8 28  1  0
  9 29  1  0
 11 30  1  0
 15 31  1  6
 15 32  1  0
 15 33  1  0
 17 34  1  0
 24 35  1  0
 24 36  1  0
M  END
