
     RDKit          3D

 11 11  0  0  0  0  0  0  0  0999 V2000
   28.1357  -10.6445   43.7019 C   0  0  0  0  0  0  0  0  0  0  0  0
   28.1166   -9.2295   43.8390 O   0  0  0  0  0  0  0  0  0  0  0  0
   26.9849   -8.6453   43.1809 C   0  0  1  0  0  0  0  0  0  0  0  0
   26.9659   -7.1571   43.5780 C   0  0  1  0  0  0  0  0  0  0  0  0
   25.8088   -6.4540   42.8744 C   0  0  2  0  0  0  0  0  0  0  0  0
   25.8746   -6.6941   41.3659 C   0  0  1  0  0  0  0  0  0  0  0  0
   25.9778   -8.1922   41.0840 C   0  0  0  0  0  0  0  0  0  0  0  0
   27.0884   -8.7806   41.7647 O   0  0  0  0  0  0  0  0  0  0  0  0
   24.7119   -6.1466   40.7437 O   0  0  0  0  0  0  0  0  0  0  0  0
   25.8494   -5.0410   43.1307 O   0  0  0  0  0  0  0  0  0  0  0  0
   26.8169   -6.9916   44.9977 O   0  0  0  0  0  0  0  0  0  0  0  0
  1  2  1  0
  3  2  1  1
  3  4  1  0
  4  5  1  0
  5  6  1  0
  6  7  1  0
  3  8  1  0
  7  8  1  0
  6  9  1  6
  5 10  1  6
  4 11  1  1
M  END
