1OF1_SCT_B_500
     RDKit          3D

 18 20  0  0  0  0  0  0  0  0999 V2000
   19.7102   17.7414    9.2731 O   0  0  0  0  0  0  0  0  0  0  0  0
   16.4372   20.2266    8.2844 O   0  0  0  0  0  0  0  0  0  0  0  0
   21.8370   20.5140    9.2147 O   0  0  0  0  0  0  0  0  0  0  0  0
   23.7787   24.4579   10.0613 O   0  0  0  0  0  0  0  0  0  0  0  0
   20.4435   22.2057    9.7779 N   0  0  0  0  0  0  0  0  0  0  0  0
   22.7927   22.4823    9.6384 N   0  0  0  0  0  0  0  0  0  0  0  0
   18.0241   19.3511    9.8807 C   0  0  2  0  0  0  0  0  0  0  0  0
   17.7935   19.9013    8.5106 C   0  0  2  0  0  0  0  0  0  0  0  0
   18.6841   21.0877    8.3356 C   0  0  0  0  0  0  0  0  0  0  0  0
   19.2585   21.3966    9.6749 C   0  0  1  0  0  0  0  0  0  0  0  0
   18.9229   20.3033   10.5989 C   0  0  1  0  0  0  0  0  0  0  0  0
   18.4896   17.9226    9.8795 C   0  0  0  0  0  0  0  0  0  0  0  0
   21.6894   21.7262    9.5418 C   0  0  0  0  0  0  0  0  0  0  0  0
   18.2744   21.6658   10.8205 C   0  0  0  0  0  0  0  0  0  0  0  0
   22.7253   23.7821    9.9810 C   0  0  0  0  0  0  0  0  0  0  0  0
   21.4785   24.3221   10.2328 C   0  0  0  0  0  0  0  0  0  0  0  0
   20.3577   23.5137   10.1242 C   0  0  0  0  0  0  0  0  0  0  0  0
   21.3910   25.7571   10.6121 C   0  0  0  0  0  0  0  0  0  0  0  0
  8  2  1  1
  7  8  1  0
  8  9  1  0
 10  5  1  6
  9 10  1  0
  7 11  1  0
 10 11  1  0
  1 12  1  0
  7 12  1  6
  3 13  2  0
  5 13  1  0
  6 13  1  0
 10 14  1  0
 11 14  1  1
  4 15  2  0
  6 15  1  0
 15 16  1  0
  5 17  1  0
 16 17  2  0
 16 18  1  0
M  END
$$$$
