1OF1_SCT_B_500
     RDKit          3D

 18 20  0  0  0  0  0  0  0  0999 V2000
   20.1175   17.6819    9.5202 O   0  0  0  0  0  0  0  0  0  0  0  0
   16.7858   19.9166    8.2710 O   0  0  0  0  0  0  0  0  0  0  0  0
   22.0949   20.6187    9.2305 O   0  0  0  0  0  0  0  0  0  0  0  0
   23.7879   24.6737   10.0862 O   0  0  0  0  0  0  0  0  0  0  0  0
   20.6001   22.2169    9.8066 N   0  0  0  0  0  0  0  0  0  0  0  0
   22.9266   22.6417    9.6588 N   0  0  0  0  0  0  0  0  0  0  0  0
   18.3402   19.2384    9.9907 C   0  0  2  0  0  0  0  0  0  0  0  0
   18.1457   19.6860    8.5783 C   0  0  2  0  0  0  0  0  0  0  0  0
   18.9767   20.9088    8.3648 C   0  0  0  0  0  0  0  0  0  0  0  0
   19.4680   21.3352    9.7049 C   0  0  1  0  0  0  0  0  0  0  0  0
   19.1493   20.2852   10.6835 C   0  0  1  0  0  0  0  0  0  0  0  0
   18.8835   17.8424   10.1048 C   0  0  0  0  0  0  0  0  0  0  0  0
   21.8727   21.8179    9.5634 C   0  0  0  0  0  0  0  0  0  0  0  0
   18.4165   21.6189   10.7853 C   0  0  0  0  0  0  0  0  0  0  0  0
   22.7789   23.9332   10.0072 C   0  0  0  0  0  0  0  0  0  0  0  0
   21.5016   24.3925   10.2664 C   0  0  0  0  0  0  0  0  0  0  0  0
   20.4335   23.5155   10.1589 C   0  0  0  0  0  0  0  0  0  0  0  0
   21.3256   25.8176   10.6523 C   0  0  0  0  0  0  0  0  0  0  0  0
  8  2  1  1
  7  8  1  0
  8  9  1  0
 10  5  1  6
  9 10  1  0
  7 11  1  0
 10 11  1  0
  1 12  1  0
  7 12  1  6
  3 13  2  0
  5 13  1  0
  6 13  1  0
 10 14  1  0
 11 14  1  1
  4 15  2  0
  6 15  1  0
 15 16  1  0
  5 17  1  0
 16 17  2  0
 16 18  1  0
M  END
$$$$
