1OF1_SCT_B_500
     RDKit          3D

 18 20  0  0  0  0  0  0  0  0999 V2000
   14.2934   16.4140    4.1173 O   0  0  0  0  0  0  0  0  0  0  0  0
   12.9527   19.9222    2.4519 O   0  0  0  0  0  0  0  0  0  0  0  0
   15.8429   20.1711    6.4412 O   0  0  0  0  0  0  0  0  0  0  0  0
   15.0500   20.7845   10.8043 O   0  0  0  0  0  0  0  0  0  0  0  0
   13.6943   19.9178    7.1046 N   0  0  0  0  0  0  0  0  0  0  0  0
   15.4363   20.4741    8.6115 N   0  0  0  0  0  0  0  0  0  0  0  0
   12.5918   18.1160    4.0142 C   0  0  2  0  0  0  0  0  0  0  0  0
   13.5429   19.1262    3.4593 C   0  0  2  0  0  0  0  0  0  0  0  0
   14.0480   19.9548    4.5948 C   0  0  0  0  0  0  0  0  0  0  0  0
   13.2180   19.6095    5.7827 C   0  0  1  0  0  0  0  0  0  0  0  0
   12.3855   18.4422    5.4569 C   0  0  1  0  0  0  0  0  0  0  0  0
   13.0018   16.6968    3.7403 C   0  0  0  0  0  0  0  0  0  0  0  0
   14.9945   20.1869    7.3784 C   0  0  0  0  0  0  0  0  0  0  0  0
   11.6995   19.7892    5.6598 C   0  0  0  0  0  0  0  0  0  0  0  0
   14.6004   20.5122    9.6656 C   0  0  0  0  0  0  0  0  0  0  0  0
   13.2631   20.2454    9.4422 C   0  0  0  0  0  0  0  0  0  0  0  0
   12.8385   19.9520    8.1557 C   0  0  0  0  0  0  0  0  0  0  0  0
   12.3297   20.2845   10.5989 C   0  0  0  0  0  0  0  0  0  0  0  0
  8  2  1  6
  7  8  1  0
  8  9  1  0
 10  5  1  1
  9 10  1  0
  7 11  1  0
 10 11  1  0
  1 12  1  0
  7 12  1  1
  3 13  2  0
  5 13  1  0
  6 13  1  0
 10 14  1  0
 11 14  1  6
  4 15  2  0
  6 15  1  0
 15 16  1  0
  5 17  1  0
 16 17  2  0
 16 18  1  0
M  END
$$$$
