1OF1_SCT_B_500
     RDKit          3D

 18 20  0  0  0  0  0  0  0  0999 V2000
   40.0750   17.9258    7.1829 O   0  0  0  0  0  0  0  0  0  0  0  0
   43.4583   20.2318    7.6929 O   0  0  0  0  0  0  0  0  0  0  0  0
   38.0368   20.8522    7.7355 O   0  0  0  0  0  0  0  0  0  0  0  0
   36.1801   24.9093    7.3703 O   0  0  0  0  0  0  0  0  0  0  0  0
   39.3907   22.4984    6.9754 N   0  0  0  0  0  0  0  0  0  0  0  0
   37.1230   22.8765    7.5496 N   0  0  0  0  0  0  0  0  0  0  0  0
   41.6069   19.5593    6.2952 C   0  0  2  0  0  0  0  0  0  0  0  0
   42.0675   19.9853    7.6515 C   0  0  2  0  0  0  0  0  0  0  0  0
   41.2795   21.1910    8.0471 C   0  0  0  0  0  0  0  0  0  0  0  0
   40.5314   21.6329    6.8371 C   0  0  1  0  0  0  0  0  0  0  0  0
   40.6658   20.6051    5.7944 C   0  0  1  0  0  0  0  0  0  0  0  0
   41.0685   18.1571    6.2611 C   0  0  0  0  0  0  0  0  0  0  0  0
   38.1851   22.0678    7.4215 C   0  0  0  0  0  0  0  0  0  0  0  0
   41.3486   21.9517    5.5786 C   0  0  0  0  0  0  0  0  0  0  0  0
   37.1943   24.1837    7.2375 C   0  0  0  0  0  0  0  0  0  0  0  0
   38.4010   24.6753    6.7775 C   0  0  0  0  0  0  0  0  0  0  0  0
   39.4797   23.8132    6.6564 C   0  0  0  0  0  0  0  0  0  0  0  0
   38.4923   26.1180    6.4294 C   0  0  0  0  0  0  0  0  0  0  0  0
  8  2  1  6
  7  8  1  0
  8  9  1  0
 10  5  1  1
  9 10  1  0
  7 11  1  0
 10 11  1  0
  1 12  1  0
  7 12  1  1
  3 13  2  0
  5 13  1  0
  6 13  1  0
 10 14  1  0
 11 14  1  6
  4 15  2  0
  6 15  1  0
 15 16  1  0
  5 17  1  0
 16 17  2  0
 16 18  1  0
M  END
$$$$
