1OF1_SCT_B_500
     RDKit          3D

 18 20  0  0  0  0  0  0  0  0999 V2000
   51.6144   35.7567   -0.1733 O   0  0  0  0  0  0  0  0  0  0  0  0
   50.5167   33.2762   -2.4399 O   0  0  0  0  0  0  0  0  0  0  0  0
   45.8076   32.0104   -1.0896 O   0  0  0  0  0  0  0  0  0  0  0  0
   42.8599   34.1715    1.4954 O   0  0  0  0  0  0  0  0  0  0  0  0
   46.6549   33.6381    0.2346 N   0  0  0  0  0  0  0  0  0  0  0  0
   44.3490   33.0932    0.2019 N   0  0  0  0  0  0  0  0  0  0  0  0
   50.3860   33.6874   -0.0636 C   0  0  2  0  0  0  0  0  0  0  0  0
   49.9617   34.1007   -1.4355 C   0  0  2  0  0  0  0  0  0  0  0  0
   48.4686   34.0945   -1.4765 C   0  0  0  0  0  0  0  0  0  0  0  0
   48.0057   33.4424   -0.2197 C   0  0  1  0  0  0  0  0  0  0  0  0
   49.1590   33.2626    0.6743 C   0  0  1  0  0  0  0  0  0  0  0  0
   51.2196   34.7207    0.6398 C   0  0  0  0  0  0  0  0  0  0  0  0
   45.6076   32.9090   -0.2230 C   0  0  0  0  0  0  0  0  0  0  0  0
   48.5111   32.0226    0.0670 C   0  0  0  0  0  0  0  0  0  0  0  0
   44.0485   34.0281    1.1222 C   0  0  0  0  0  0  0  0  0  0  0  0
   45.0797   34.8000    1.6224 C   0  0  0  0  0  0  0  0  0  0  0  0
   46.3695   34.5846    1.1625 C   0  0  0  0  0  0  0  0  0  0  0  0
   44.7602   35.8362    2.6398 C   0  0  0  0  0  0  0  0  0  0  0  0
  8  2  1  6
  7  8  1  0
  8  9  1  0
 10  5  1  1
  9 10  1  0
  7 11  1  0
 10 11  1  0
  1 12  1  0
  7 12  1  1
  3 13  2  0
  5 13  1  0
  6 13  1  0
 10 14  1  0
 11 14  1  6
  4 15  2  0
  6 15  1  0
 15 16  1  0
  5 17  1  0
 16 17  2  0
 16 18  1  0
M  END
$$$$
