1OF1_SCT_B_500
     RDKit          3D

 18 20  0  0  0  0  0  0  0  0999 V2000
   50.3468   31.2811    0.4809 O   0  0  0  0  0  0  0  0  0  0  0  0
   51.2902   35.2114   -0.0727 O   0  0  0  0  0  0  0  0  0  0  0  0
   46.1770   32.4607   -1.0478 O   0  0  0  0  0  0  0  0  0  0  0  0
   42.8493   34.0588    1.4848 O   0  0  0  0  0  0  0  0  0  0  0  0
   46.7048   34.1964    0.3047 N   0  0  0  0  0  0  0  0  0  0  0  0
   44.5279   33.2646    0.2178 N   0  0  0  0  0  0  0  0  0  0  0  0
   50.1279   33.2551   -0.8823 C   0  0  2  0  0  0  0  0  0  0  0  0
   50.4377   34.1411    0.2805 C   0  0  2  0  0  0  0  0  0  0  0  0
   49.1435   34.6275    0.8458 C   0  0  0  0  0  0  0  0  0  0  0  0
   48.0784   34.2397   -0.1208 C   0  0  1  0  0  0  0  0  0  0  0  0
   48.6579   33.3423   -1.1310 C   0  0  1  0  0  0  0  0  0  0  0  0
   50.6600   31.8587   -0.7268 C   0  0  0  0  0  0  0  0  0  0  0  0
   45.8079   33.3031   -0.1803 C   0  0  0  0  0  0  0  0  0  0  0  0
   48.2199   34.7373   -1.5650 C   0  0  0  0  0  0  0  0  0  0  0  0
   44.0524   34.1250    1.1370 C   0  0  0  0  0  0  0  0  0  0  0  0
   44.9253   35.0574    1.6646 C   0  0  0  0  0  0  0  0  0  0  0  0
   46.2421   35.0708    1.2319 C   0  0  0  0  0  0  0  0  0  0  0  0
   44.4117   36.0134    2.6810 C   0  0  0  0  0  0  0  0  0  0  0  0
  8  2  1  6
  7  8  1  0
  8  9  1  0
 10  5  1  1
  9 10  1  0
  7 11  1  0
 10 11  1  0
  1 12  1  0
  7 12  1  1
  3 13  2  0
  5 13  1  0
  6 13  1  0
 10 14  1  0
 11 14  1  6
  4 15  2  0
  6 15  1  0
 15 16  1  0
  5 17  1  0
 16 17  2  0
 16 18  1  0
M  END
$$$$
