1OF1_SCT_B_500
     RDKit          3D

 18 20  0  0  0  0  0  0  0  0999 V2000
   16.8367   20.7803   10.8492 O   0  0  0  0  0  0  0  0  0  0  0  0
   19.2678   17.5937    9.7730 O   0  0  0  0  0  0  0  0  0  0  0  0
   23.0114   20.8302    9.0006 O   0  0  0  0  0  0  0  0  0  0  0  0
   23.4838   25.1458   10.0933 O   0  0  0  0  0  0  0  0  0  0  0  0
   21.1133   21.9238    9.5679 N   0  0  0  0  0  0  0  0  0  0  0  0
   23.2346   22.9795    9.5465 N   0  0  0  0  0  0  0  0  0  0  0  0
   18.1603   19.6564    9.1795 C   0  0  2  0  0  0  0  0  0  0  0  0
   18.9869   18.9171   10.1811 C   0  0  2  0  0  0  0  0  0  0  0  0
   20.2364   19.7014   10.4150 C   0  0  0  0  0  0  0  0  0  0  0  0
   20.2741   20.7708    9.3786 C   0  0  1  0  0  0  0  0  0  0  0  0
   18.9830   20.7964    8.6757 C   0  0  1  0  0  0  0  0  0  0  0  0
   16.8007   20.0376    9.6928 C   0  0  0  0  0  0  0  0  0  0  0  0
   22.4542   21.9034    9.3694 C   0  0  0  0  0  0  0  0  0  0  0  0
   20.2176   20.3330    7.9094 C   0  0  0  0  0  0  0  0  0  0  0  0
   22.7228   24.1611    9.9380 C   0  0  0  0  0  0  0  0  0  0  0  0
   21.3602   24.2373   10.1546 C   0  0  0  0  0  0  0  0  0  0  0  0
   20.5814   23.1068    9.9627 C   0  0  0  0  0  0  0  0  0  0  0  0
   20.7829   25.5374   10.5874 C   0  0  0  0  0  0  0  0  0  0  0  0
  8  2  1  6
  7  8  1  0
  8  9  1  0
 10  5  1  6
  9 10  1  0
  7 11  1  0
 10 11  1  0
  1 12  1  0
  7 12  1  1
  3 13  2  0
  5 13  1  0
  6 13  1  0
 10 14  1  0
 11 14  1  6
  4 15  2  0
  6 15  1  0
 15 16  1  0
  5 17  1  0
 16 17  2  0
 16 18  1  0
M  END
$$$$
