1SQ5_PAU_A_6001
     RDKit          3D

 32 31  0  0  0  0  0  0  0  0999 V2000
    1.2798   -1.4326   -4.4822 O   0  0  0  0  0  0  0  0  0  0  0  0
    0.9071   -0.3153   -2.3508 C   0  0  1  0  0  0  0  0  0  0  0  0
    1.8169   -0.4852   -3.5973 C   0  0  0  0  0  0  0  0  0  0  0  0
    1.4898    0.7913   -1.4381 C   0  0  0  0  0  0  0  0  0  0  0  0
   -0.5062    0.1222   -2.7980 C   0  0  0  0  0  0  0  0  0  0  0  0
    0.8228   -1.6463   -1.5327 C   0  0  2  0  0  0  0  0  0  0  0  0
    0.7378   -2.7453   -2.4072 O   0  0  0  0  0  0  0  0  0  0  0  0
   -0.3429   -1.6817   -0.5688 C   0  0  0  0  0  0  0  0  0  0  0  0
   -0.1281   -1.6203    0.6739 O   0  0  0  0  0  0  0  0  0  0  0  0
   -1.6866   -1.7871   -1.0638 N   0  0  0  0  0  0  0  0  0  0  0  0
   -2.1037   -1.2054   -2.3384 C   0  0  0  0  0  0  0  0  0  0  0  0
   -1.0634   -1.4581   -3.4359 C   0  0  0  0  0  0  0  0  0  0  0  0
    0.3179   -1.0909   -2.9868 C   0  0  0  0  0  0  0  0  0  0  0  0
    0.5087   -0.4914   -1.7463 O   0  0  0  0  0  0  0  0  0  0  0  0
    1.3050   -1.2991   -3.7433 O   0  0  0  0  0  0  0  0  0  0  0  0
    1.9072   -1.4808   -5.2496 H   0  0  0  0  0  0  0  0  0  0  0  0
    1.9220    0.4886   -4.1252 H   0  0  0  0  0  0  0  0  0  0  0  0
    2.8322   -0.8188   -3.2856 H   0  0  0  0  0  0  0  0  0  0  0  0
    2.5345    0.5557   -1.1428 H   0  0  0  0  0  0  0  0  0  0  0  0
    0.8814    0.8970   -0.5140 H   0  0  0  0  0  0  0  0  0  0  0  0
    1.4973    1.7745   -1.9551 H   0  0  0  0  0  0  0  0  0  0  0  0
   -0.9345   -0.5978   -3.5256 H   0  0  0  0  0  0  0  0  0  0  0  0
   -0.4755    1.1179   -3.2893 H   0  0  0  0  0  0  0  0  0  0  0  0
   -1.1907    0.1898   -1.9252 H   0  0  0  0  0  0  0  0  0  0  0  0
    1.7621   -1.7402   -0.9368 H   0  0  0  0  0  0  0  0  0  0  0  0
    0.9811   -3.5521   -1.8826 H   0  0  0  0  0  0  0  0  0  0  0  0
   -2.3778   -2.3669   -0.5373 H   0  0  0  0  0  0  0  0  0  0  0  0
   -2.2516   -0.1096   -2.2134 H   0  0  0  0  0  0  0  0  0  0  0  0
   -3.0805   -1.6384   -2.6433 H   0  0  0  0  0  0  0  0  0  0  0  0
   -1.0933   -2.5250   -3.7488 H   0  0  0  0  0  0  0  0  0  0  0  0
   -1.3188   -0.8417   -4.3230 H   0  0  0  0  0  0  0  0  0  0  0  0
    1.4362   -0.2315   -1.4338 H   0  0  0  0  0  0  0  0  0  0  0  0
  1  3  1  0
  2  3  1  1
  2  4  1  0
  2  5  1  0
  2  6  1  0
  6  7  1  0
  6  8  1  0
  8  9  2  0
  8 10  1  0
 10 11  1  0
 11 12  1  0
 12 13  1  0
 13 14  1  0
 13 15  2  0
  1 16  1  0
  3 17  1  0
  3 18  1  0
  4 19  1  0
  4 20  1  0
  4 21  1  0
  5 22  1  0
  5 23  1  0
  5 24  1  0
  6 25  1  6
  7 26  1  0
 10 27  1  0
 11 28  1  0
 11 29  1  0
 12 30  1  0
 12 31  1  0
 14 32  1  0
M  END
