8ERS_WQO_A_201
     RDKit          3D

 23 25  0  0  0  0  0  0  0  0999 V2000
  -28.5201  -13.2237   -0.0681 C   0  0  0  0  0  0  0  0  0  0  0  0
  -30.5576  -12.7050    1.0499 C   0  0  0  0  0  0  0  0  0  0  0  0
  -29.6577  -12.4518    0.0232 C   0  0  0  0  0  0  0  0  0  0  0  0
  -30.3094  -13.7289    1.9678 C   0  0  0  0  0  0  0  0  0  0  0  0
  -31.4744  -13.7990    2.9722 C   0  0  0  0  0  0  0  0  0  0  0  0
  -33.6282  -12.4857    3.1308 C   0  0  0  0  0  0  0  0  0  0  0  0
  -32.1405  -12.4476    2.8046 C   0  0  2  0  0  0  0  0  0  0  0  0
  -29.1677  -14.4984    1.8628 C   0  0  0  0  0  0  0  0  0  0  0  0
  -28.2840  -14.2305    0.8373 C   0  0  0  0  0  0  0  0  0  0  0  0
  -30.9235   -5.7325    0.8208 C   0  0  0  0  0  0  0  0  0  0  0  0
  -31.1059   -6.2262   -0.4551 C   0  0  0  0  0  0  0  0  0  0  0  0
  -31.3396   -7.5716   -0.6004 C   0  0  0  0  0  0  0  0  0  0  0  0
  -31.3814   -8.4189    0.4862 C   0  0  0  0  0  0  0  0  0  0  0  0
  -31.6807   -9.8849    0.2747 C   0  0  0  0  0  0  0  0  0  0  0  0
  -31.8857  -12.0178    1.3972 C   0  0  1  0  0  0  0  0  0  0  0  0
  -31.2045   -7.9135    1.7586 C   0  0  0  0  0  0  0  0  0  0  0  0
  -30.9659   -6.5615    1.9257 C   0  0  0  0  0  0  0  0  0  0  0  0
  -30.6979   -4.3301    0.9913 N   0  0  0  0  0  0  0  0  0  0  0  0
  -31.5132   -8.0485   -1.8878 O   0  0  0  0  0  0  0  0  0  0  0  0
  -31.7820  -10.6175    1.4411 O   0  0  0  0  0  0  0  0  0  0  0  0
  -33.9850  -12.4525    4.3294 O   0  0  0  0  0  0  0  0  0  0  0  0
  -34.4769  -12.5283    2.2125 O   0  0  0  0  0  0  0  0  0  0  0  0
  -31.8696  -10.3822   -0.7840 O   0  0  0  0  0  0  0  0  0  0  0  0
  1  3  2  0
  2  3  1  0
  2  4  2  0
  4  5  1  0
  5  7  1  0
  7  6  1  6
  4  8  1  0
  1  9  1  0
  8  9  2  0
 10 11  2  0
 11 12  1  0
 12 13  2  0
 13 14  1  0
  2 15  1  0
  7 15  1  0
 13 16  1  0
 16 17  2  0
 10 17  1  0
 10 18  1  0
 12 19  1  0
 15 20  1  1
 14 20  1  0
  6 21  1  0
  6 22  2  0
 14 23  2  0
M  END
