7P4C_5OV_AAA_905
     RDKit          3D

 16 17  0  0  0  0  0  0  0  0999 V2000
   91.2901   13.0219   34.1546 C   0  0  1  0  0  0  0  0  0  0  0  0
   90.2275   12.3913   34.9883 C   0  0  2  0  0  0  0  0  0  0  0  0
   90.4470   12.5944   36.4512 C   0  0  2  0  0  0  0  0  0  0  0  0
   89.3410   11.8717   37.1784 C   0  0  0  0  0  0  0  0  0  0  0  0
   90.3336   14.0972   36.6566 C   0  0  2  0  0  0  0  0  0  0  0  0
   91.4681   14.7933   35.9726 C   0  0  1  0  0  0  0  0  0  0  0  0
   91.8893   14.2490   34.6759 C   0  0  1  0  0  0  0  0  0  0  0  0
   92.3071   11.9908   33.8842 N   0  0  0  0  0  0  0  0  0  0  0  0
   91.6928    9.4116   33.4110 O   0  0  0  0  0  0  0  0  0  0  0  0
   91.1546   10.7792   33.3688 S   0  0  2  0  0  6  0  0  0  0  0  0
   90.6125   11.1937   32.0336 O   0  0  0  0  0  0  0  0  0  0  0  0
   90.0417   11.1009   34.6004 O   0  0  0  0  0  0  0  0  0  0  0  0
   88.0801   12.2778   36.8025 O   0  0  0  0  0  0  0  0  0  0  0  0
   90.3354   14.4352   38.0080 O   0  0  0  0  0  0  0  0  0  0  0  0
   91.0973   16.1400   35.9139 O   0  0  0  0  0  0  0  0  0  0  0  0
   93.2959   14.1005   34.6855 O   0  0  0  0  0  0  0  0  0  0  0  0
  1  2  1  0
  2  3  1  0
  3  4  1  1
  3  5  1  0
  5  6  1  0
  1  7  1  0
  6  7  1  0
  1  8  1  1
  9 10  2  0
 10  8  1  1
 10 11  2  0
 10 12  1  0
  2 12  1  1
  4 13  1  6
  5 14  1  1
  6 15  1  6
  7 16  1  1
M  END
$$$$
