7AKL_RK5_A_501
     RDKit          3D

 19 21  0  0  0  0  0  0  0  0999 V2000
   35.5744    0.8722    7.0969 C   0  0  0  0  0  0  0  0  0  0  0  0
   36.1151    1.1672    8.4409 C   0  0  0  0  0  0  0  0  0  0  0  0
   37.3981    1.3335    8.8422 C   0  0  0  0  0  0  0  0  0  0  0  0
   38.6541    1.3379    8.0277 C   0  0  0  0  0  0  0  0  0  0  0  0
   37.3418    1.6522   10.2429 C   0  0  0  0  0  0  0  0  0  0  0  0
   38.3017    1.9405   11.2074 C   0  0  0  0  0  0  0  0  0  0  0  0
   37.9017    2.1646   12.5157 C   0  0  0  0  0  0  0  0  0  0  0  0
   36.5181    2.0850   12.8266 C   0  0  0  0  0  0  0  0  0  0  0  0
   35.5479    1.7979   11.8810 C   0  0  0  0  0  0  0  0  0  0  0  0
   36.0016    1.5925   10.6006 C   0  0  0  0  0  0  0  0  0  0  0  0
   35.2239    1.2988    9.4951 O   0  0  0  0  0  0  0  0  0  0  0  0
   38.9044    2.5329   13.5620 C   0  0  0  0  0  0  0  0  0  0  0  0
   40.2750    2.5493   13.2805 C   0  0  0  0  0  0  0  0  0  0  0  0
   41.2015    2.9246   14.2693 C   0  0  0  0  0  0  0  0  0  0  0  0
   42.5382    2.9246   14.0243 N   0  0  0  0  0  0  0  0  0  0  0  0
   40.7932    3.3903   15.4609 N   0  0  0  0  0  0  0  0  0  0  0  0
   39.4744    3.4303   15.7309 C   0  0  0  0  0  0  0  0  0  0  0  0
   39.1227    3.9066   16.9380 N   0  0  0  0  0  0  0  0  0  0  0  0
   38.4989    2.9990   14.8119 C   0  0  0  0  0  0  0  0  0  0  0  0
  1  2  1  0
  2  3  2  0
  3  4  1  0
  3  5  1  0
  5  6  1  0
  6  7  2  0
  7  8  1  0
  8  9  2  0
  5 10  2  0
  9 10  1  0
  2 11  1  0
 10 11  1  0
  7 12  1  0
 12 13  2  0
 13 14  1  0
 14 15  1  0
 14 16  2  0
 16 17  1  0
 17 18  1  0
 17 19  2  0
 12 19  1  0
M  END
