8BN6_R53_A_303
     RDKit          3D

 29 32  0  0  0  0  0  0  0  0999 V2000
   -0.3532   22.1750    3.5820 C   0  0  0  0  0  0  0  0  0  0  0  0
   -7.0362   26.6273    1.0587 C   0  0  0  0  0  0  0  0  0  0  0  0
   -1.8766   23.0565    1.7950 C   0  0  0  0  0  0  0  0  0  0  0  0
   -3.4933   24.2136    0.7502 C   0  0  0  0  0  0  0  0  0  0  0  0
   -2.2794   24.0899   -1.8768 C   0  0  0  0  0  0  0  0  0  0  0  0
   -4.1300   24.7040   -0.3957 C   0  0  0  0  0  0  0  0  0  0  0  0
   -4.5534   24.5360   -2.8603 C   0  0  0  0  0  0  0  0  0  0  0  0
   -4.4108   23.2687   -3.6429 C   0  0  0  0  0  0  0  0  0  0  0  0
   -2.1459   23.4039   -3.2197 C   0  0  0  0  0  0  0  0  0  0  0  0
   -5.2569   25.4696   -0.2543 C   0  0  0  0  0  0  0  0  0  0  0  0
   -5.8366   25.8105    0.9445 C   0  0  0  0  0  0  0  0  0  0  0  0
    1.2529   21.0240    5.1750 N   0  0  0  0  0  0  0  0  0  0  0  0
   -0.7429   22.2584    2.2420 N   0  0  0  0  0  0  0  0  0  0  0  0
    0.7458   21.2607    3.9352 C   0  0  0  0  0  0  0  0  0  0  0  0
   -2.4158   23.4699    0.8632 N   0  0  0  0  0  0  0  0  0  0  0  0
    3.0513   19.6118    6.2411 C   0  0  0  0  0  0  0  0  0  0  0  0
    2.2524   20.1227    5.0901 C   0  0  0  0  0  0  0  0  0  0  0  0
   -0.9099   22.8486    4.4654 O   0  0  0  0  0  0  0  0  0  0  0  0
   -3.6646   24.4466   -1.7040 N   0  0  0  0  0  0  0  0  0  0  0  0
   -3.2575   22.5599   -3.3254 O   0  0  0  0  0  0  0  0  0  0  0  0
   -7.4163   27.0985    2.3075 O   0  0  0  0  0  0  0  0  0  0  0  0
   -7.6741   26.8658    0.0013 O   0  0  0  0  0  0  0  0  0  0  0  0
   -5.2047   25.3237    2.0873 C   0  0  0  0  0  0  0  0  0  0  0  0
   -4.0706   24.5531    1.9444 C   0  0  0  0  0  0  0  0  0  0  0  0
   -3.0037   23.7647    3.1598 S   0  0  0  0  0  0  0  0  0  0  0  0
    1.4581   20.4760    3.0466 C   0  0  0  0  0  0  0  0  0  0  0  0
    1.2432   20.3694    1.3186 Cl  0  0  0  0  0  0  0  0  0  0  0  0
    2.3919   19.7708    3.7634 C   0  0  0  0  0  0  0  0  0  0  0  0
    3.5670   18.6226    3.1487 Cl  0  0  0  0  0  0  0  0  0  0  0  0
  4  6  1  0
  7  8  1  0
  5  9  1  0
  6 10  2  0
 10 11  1  0
  2 11  1  0
  3 13  1  0
  1 13  1  0
  1 14  1  0
 12 14  1  0
  4 15  1  0
  3 15  2  0
 12 17  1  0
 16 17  1  0
  1 18  2  0
  5 19  1  0
  7 19  1  0
  6 19  1  0
  9 20  1  0
  8 20  1  0
  2 21  1  0
  2 22  2  0
 11 23  2  0
  4 24  2  0
 23 24  1  0
  3 25  1  0
 24 25  1  0
 14 26  2  0
 26 27  1  0
 26 28  1  0
 17 28  2  0
 28 29  1  0
M  END
$$$$
