
     RDKit          3D

 32 34  0  0  0  0  0  0  0  0999 V2000
    6.7225    3.3299  -22.5998 C   0  0  0  0  0  0  0  0  0  0  0  0
    6.3926    2.6922  -23.7987 C   0  0  0  0  0  0  0  0  0  0  0  0
    5.5790    1.5591  -23.7477 C   0  0  0  0  0  0  0  0  0  0  0  0
    5.0885    1.0719  -22.5200 C   0  0  0  0  0  0  0  0  0  0  0  0
    2.1416    0.8648  -21.9048 C   0  0  0  0  0  0  0  0  0  0  0  0
    1.1250   -1.6745  -21.3580 C   0  0  0  0  0  0  0  0  0  0  0  0
   -1.3888   -4.2696  -20.3097 C   0  0  0  0  0  0  0  0  0  0  0  0
    7.1185    3.6464  -28.4792 C   0  0  0  0  0  0  0  0  0  0  0  0
    6.2271    5.1418  -30.4244 C   0  0  0  0  0  0  0  0  0  0  0  0
    5.0103    1.1846  -19.9859 C   0  0  0  0  0  0  0  0  0  0  0  0
    0.8213    0.7102  -21.4710 C   0  0  0  0  0  0  0  0  0  0  0  0
    0.3031   -0.5580  -21.1975 C   0  0  0  0  0  0  0  0  0  0  0  0
    2.4434   -1.5207  -21.7867 C   0  0  0  0  0  0  0  0  0  0  0  0
    0.5476   -2.9974  -21.0597 C   0  0  0  0  0  0  0  0  0  0  0  0
   -1.4837   -1.8297  -20.4916 C   0  0  0  0  0  0  0  0  0  0  0  0
    5.4697    1.7073  -21.3193 C   0  0  0  0  0  0  0  0  0  0  0  0
    6.2566    3.4343  -26.1843 C   0  0  0  0  0  0  0  0  0  0  0  0
    5.9081    4.1628  -29.2639 C   0  0  0  0  0  0  0  0  0  0  0  0
    4.9497    5.8295  -30.9354 C   0  0  0  0  0  0  0  0  0  0  0  0
    6.2809    2.8480  -21.3725 C   0  0  0  0  0  0  0  0  0  0  0  0
    7.2407    6.2130  -29.9885 C   0  0  0  0  0  0  0  0  0  0  0  0
    6.8424    4.3296  -31.5817 C   0  0  0  0  0  0  0  0  0  0  0  0
    2.9631   -0.2525  -22.0924 C   0  0  0  0  0  0  0  0  0  0  0  0
    3.2566   -2.5810  -21.9249 F   0  0  0  0  0  0  0  0  0  0  0  0
    7.4979    4.4263  -22.6248 F   0  0  0  0  0  0  0  0  0  0  0  0
   -0.7688   -2.9948  -20.6105 N   0  0  0  0  0  0  0  0  0  0  0  0
   -1.0247   -0.6534  -20.7567 N   0  0  0  0  0  0  0  0  0  0  0  0
    6.9097    3.2496  -24.9880 N   0  0  0  0  0  0  0  0  0  0  0  0
    7.0803    4.0767  -27.0911 N   0  0  0  0  0  0  0  0  0  0  0  0
    4.3292   -0.1251  -22.4567 N   0  0  0  0  0  0  0  0  0  0  0  0
    1.1973   -4.0274  -21.2146 O   0  0  0  0  0  0  0  0  0  0  0  0
    5.1179    3.0809  -26.4568 O   0  0  0  0  0  0  0  0  0  0  0  0
  1  2  4  0
  2  3  4  0
  3  4  4  0
  5 11  4  0
 11 12  4  0
  6 12  4  0
  6 13  4  0
  6 14  4  0
  4 16  4  0
 10 16  1  0
  9 18  1  0
  8 18  1  0
  9 19  1  0
  1 20  4  0
 16 20  4  0
  9 21  1  0
  9 22  1  0
  5 23  4  0
 13 23  4  0
 13 24  1  0
  1 25  1  0
 14 26  4  0
 15 26  4  0
  7 26  1  0
 12 27  4  0
 15 27  4  0
 17 28  1  0
  2 28  1  0
  8 29  1  0
 17 29  1  0
  4 30  1  0
 23 30  1  0
 14 31  2  0
 17 32  2  0
M  END
