6YQW_82I_A_201
     RDKit          3D

 11 11  0  0  0  0  0  0  0  0999 V2000
    2.6723   13.9927    8.9876 C   0  0  0  0  0  0  0  0  0  0  0  0
    1.3145   13.6412    9.2595 N   0  0  0  0  0  0  0  0  0  0  0  0
    0.6784   13.7729   10.5252 C   0  0  0  0  0  0  0  0  0  0  0  0
    1.3013   14.3686   11.6041 C   0  0  0  0  0  0  0  0  0  0  0  0
    0.6931   14.4908   12.8022 N   0  0  0  0  0  0  0  0  0  0  0  0
   -0.5433   14.0486   13.0281 N   0  0  0  0  0  0  0  0  0  0  0  0
   -1.1710   14.1975   14.3377 C   0  0  0  0  0  0  0  0  0  0  0  0
   -1.1938   13.4577   12.0009 C   0  0  0  0  0  0  0  0  0  0  0  0
   -2.3747   13.0142   12.1493 O   0  0  0  0  0  0  0  0  0  0  0  0
   -0.6178   13.3071   10.7549 C   0  0  0  0  0  0  0  0  0  0  0  0
   -1.4411   12.5456    9.4113 Cl  0  0  0  0  0  0  0  0  0  0  0  0
  1  2  1  6
  2  3  1  0
  3  4  1  0
  4  5  2  0
  5  6  1  0
  7  6  1  6
  6  8  1  0
  8  9  2  0
  8 10  1  0
  3 10  2  0
 10 11  1  0
M  END
$$$$
