@<TRIPOS>MOLECULE
1MZC_BNE_B_1003
 68 71 0 0 0
SMALL
GASTEIGER

@<TRIPOS>ATOM
      1 C          14.5970  135.5110   -4.6940 C.3     1  UNL1        0.0718
      2 C          14.4290  134.0330   -4.0840 C.ar    1  UNL1       -0.0290
      3 C          16.1330  135.9440   -4.9550 C.2     1  UNL1        0.2258
      4 C          13.6970  135.5740   -6.0210 C.3     1  UNL1       -0.0349
      5 C          14.0150  136.6010   -3.6960 C.3     1  UNL1       -0.0378
      6 C          15.5560  133.3530   -3.5590 C.ar    1  UNL1       -0.0152
      7 C          13.1740  133.3260   -4.0080 C.ar    1  UNL1       -0.0574
      8 N          16.9250  135.2990   -5.9540 N.am    1  UNL1       -0.3038
      9 O          16.6390  136.8580   -4.2700 O.2     1  UNL1       -0.2746
     10 C          13.9800  134.5780   -7.1700 C.3     1  UNL1       -0.0504
     11 C          14.4070  136.4690   -2.2080 C.3     1  UNL1       -0.0640
     12 C          15.4980  132.0440   -2.9810 C.ar    1  UNL1        0.1288
     13 C          13.0950  132.0150   -3.4370 C.ar    1  UNL1       -0.0580
     14 C          16.4980  134.2450   -6.8830 C.3     1  UNL1        0.0144
     15 C          18.3160  135.7220   -6.1370 C.3     1  UNL1        0.0032
     16 C          15.3690  134.7030   -7.7990 C.3     1  UNL1       -0.0371
     17 O          16.6820  131.4310   -2.4750 O.3     1  UNL1       -0.4547
     18 C          14.2550  131.3730   -2.9240 C.ar    1  UNL1       -0.0193
     19 C          17.8320  132.2480   -2.3910 C.ar    1  UNL1        0.1461
     20 C          18.8010  132.3610   -3.4460 C.ar    1  UNL1        0.0939
     21 C          18.0070  132.9980   -1.1940 C.ar    1  UNL1       -0.0128
     22 C          19.9210  133.2120   -3.2750 C.ar    1  UNL1       -0.0404
     23 C          18.6250  131.7080   -4.7090 C.1     1  UNL1        0.1028
     24 C          19.1270  133.8700   -1.0090 C.ar    1  UNL1       -0.0185
     25 C          20.0830  133.9570   -2.0780 C.ar    1  UNL1       -0.0550
     26 N          18.4220  131.2060   -5.7280 N.1     1  UNL1       -0.1907
     27 C          19.3220  134.6930    0.2930 C.3     1  UNL1        0.0815
     28 C          19.3080  133.8390    1.5610 C.ar    1  UNL1        0.0621
     29 C          18.2190  135.7940    0.4250 C.3     1  UNL1       -0.0372
     30 N          20.6330  135.3480    0.2530 N.3     1  UNL1       -0.3165
     31 N          20.0940  132.7240    1.7930 N.ar    1  UNL1       -0.3353
     32 C          18.5490  133.9460    2.7280 C.ar    1  UNL1        0.0507
     33 C          19.7520  132.2710    3.0230 C.ar    1  UNL1        0.0959
     34 C          21.1080  132.0520    0.9940 C.3     1  UNL1        0.0130
     35 N          18.8250  132.9690    3.6430 N.ar    1  UNL1       -0.2437
     36 H          13.8052  136.5584   -6.4262 H       1  UNL1        0.0278
     37 H          12.7203  135.3003   -5.6805 H       1  UNL1        0.0278
     38 H          12.9476  136.5546   -3.7540 H       1  UNL1        0.0276
     39 H          14.4441  137.5277   -4.0154 H       1  UNL1        0.0276
     40 H          16.4712  133.8285   -3.5953 H       1  UNL1        0.0657
     41 H          12.3178  133.7729   -4.3716 H       1  UNL1        0.0621
     42 H          13.2514  134.7387   -7.9370 H       1  UNL1        0.0266
     43 H          13.9308  133.5995   -6.7398 H       1  UNL1        0.0266
     44 H          14.0097  135.5569   -1.8141 H       1  UNL1        0.0230
     45 H          14.0096  137.2974   -1.6596 H       1  UNL1        0.0230
     46 H          15.4733  136.4612   -2.1194 H       1  UNL1        0.0230
     47 H          12.1847  131.5304   -3.3975 H       1  UNL1        0.0619
     48 H          16.1607  133.4026   -6.3160 H       1  UNL1        0.0464
     49 H          17.3361  133.9920   -7.4982 H       1  UNL1        0.0464
     50 H          18.5521  136.4879   -5.4281 H       1  UNL1        0.0428
     51 H          18.4458  136.1018   -7.1289 H       1  UNL1        0.0428
     52 H          18.9659  134.8852   -5.9876 H       1  UNL1        0.0428
     53 H          15.5344  135.7294   -8.0523 H       1  UNL1        0.0280
     54 H          15.3831  134.0642   -8.6573 H       1  UNL1        0.0280
     55 H          14.1904  130.4279   -2.5146 H       1  UNL1        0.0654
     56 H          17.3081  132.9108   -0.4397 H       1  UNL1        0.0658
     57 H          20.6240  133.2906   -4.0264 H       1  UNL1        0.0632
     58 H          20.9039  134.5736   -1.9733 H       1  UNL1        0.0621
     59 H          17.2548  135.3311    0.4555 H       1  UNL1        0.0254
     60 H          18.2713  136.4539   -0.4157 H       1  UNL1        0.0254
     61 H          18.3763  136.3503    1.3254 H       1  UNL1        0.0254
     62 H          21.3636  134.6414    0.1669 H       1  UNL1        0.1194
     63 H          20.7738  135.8797    1.1120 H       1  UNL1        0.1194
     64 H          17.8495  134.6886    2.8841 H       1  UNL1        0.0848
     65 H          20.1884  131.4362    3.4445 H       1  UNL1        0.1029
     66 H          21.2268  132.5658    0.0630 H       1  UNL1        0.0456
     67 H          20.8048  131.0428    0.8083 H       1  UNL1        0.0456
     68 H          22.0379  132.0533    1.5233 H       1  UNL1        0.0456
@<TRIPOS>BOND
     1     1     2    1
     2     1     3    1
     3     1     4    1
     4     1     5    1
     5     2     6   ar
     6     2     7   ar
     7     3     8   am
     8     3     9    2
     9     4    10    1
    10     5    11    1
    11     6    12   ar
    12     7    13   ar
    13     8    14    1
    14     8    15    1
    15    10    16    1
    16    14    16    1
    17    12    17    1
    18    12    18   ar
    19    13    18   ar
    20    17    19    1
    21    19    20   ar
    22    19    21   ar
    23    20    22   ar
    24    20    23    1
    25    21    24   ar
    26    22    25   ar
    27    24    25   ar
    28    23    26    3
    29    24    27    1
    30    27    28    1
    31    27    29    1
    32    27    30    1
    33    28    31   ar
    34    28    32   ar
    35    31    33   ar
    36    31    34    1
    37    32    35   ar
    38    33    35   ar
    39     4    36    1
    40     4    37    1
    41     5    38    1
    42     5    39    1
    43     6    40    1
    44     7    41    1
    45    10    42    1
    46    10    43    1
    47    11    44    1
    48    11    45    1
    49    11    46    1
    50    13    47    1
    51    14    48    1
    52    14    49    1
    53    15    50    1
    54    15    51    1
    55    15    52    1
    56    16    53    1
    57    16    54    1
    58    18    55    1
    59    21    56    1
    60    22    57    1
    61    25    58    1
    62    29    59    1
    63    29    60    1
    64    29    61    1
    65    30    62    1
    66    30    63    1
    67    32    64    1
    68    33    65    1
    69    34    66    1
    70    34    67    1
    71    34    68    1
