1MZC_BNE_B_1003
     RDKit          3D

 68 71  0  0  0  0  0  0  0  0999 V2000
    2.0387    2.4930   -0.6495 C   0  0  1  0  0  0  0  0  0  0  0  0
    1.7976    2.4242    0.8788 C   0  0  0  0  0  0  0  0  0  0  0  0
    0.7195    2.5478   -1.4373 C   0  0  0  0  0  0  0  0  0  0  0  0
    2.8790    3.7415   -1.1074 C   0  0  0  0  0  0  0  0  0  0  0  0
    2.8820    1.2304   -1.0403 C   0  0  0  0  0  0  0  0  0  0  0  0
    0.6323    1.8058    1.3973 C   0  0  0  0  0  0  0  0  0  0  0  0
    2.7945    2.8125    1.8047 C   0  0  0  0  0  0  0  0  0  0  0  0
   -0.2363    3.6290   -1.2743 N   0  0  0  0  0  0  0  0  0  0  0  0
    0.4951    1.6756   -2.3234 O   0  0  0  0  0  0  0  0  0  0  0  0
    2.1462    5.0949   -1.2265 C   0  0  0  0  0  0  0  0  0  0  0  0
    2.2994   -0.1179   -0.5934 C   0  0  0  0  0  0  0  0  0  0  0  0
    0.4111    1.7186    2.7829 C   0  0  0  0  0  0  0  0  0  0  0  0
    2.5710    2.7252    3.1801 C   0  0  0  0  0  0  0  0  0  0  0  0
   -0.1689    4.6091   -0.1697 C   0  0  0  0  0  0  0  0  0  0  0  0
   -1.3161    3.7457   -2.2638 C   0  0  0  0  0  0  0  0  0  0  0  0
    1.1665    5.3847   -0.0873 C   0  0  0  0  0  0  0  0  0  0  0  0
   -0.7787    1.1965    3.3070 O   0  0  0  0  0  0  0  0  0  0  0  0
    1.3747    2.2050    3.6661 C   0  0  0  0  0  0  0  0  0  0  0  0
   -1.5147    0.1458    2.7370 C   0  0  0  0  0  0  0  0  0  0  0  0
   -2.9148    0.1728    2.8097 C   0  0  0  0  0  0  0  0  0  0  0  0
   -0.8698   -0.9548    2.1419 C   0  0  0  0  0  0  0  0  0  0  0  0
   -3.6623   -0.8783    2.2723 C   0  0  0  0  0  0  0  0  0  0  0  0
   -3.5950    1.2820    3.4288 C   0  0  0  0  0  0  0  0  0  0  0  0
   -1.6148   -2.0240    1.5953 C   0  0  0  0  0  0  0  0  0  0  0  0
   -3.0216   -1.9634    1.6738 C   0  0  0  0  0  0  0  0  0  0  0  0
   -4.1392    2.1742    3.9259 N   0  0  0  0  0  0  0  0  0  0  0  0
   -0.9476   -3.2677    0.9801 C   0  0  2  0  0  0  0  0  0  0  0  0
   -1.4779   -3.4877   -0.4472 C   0  0  0  0  0  0  0  0  0  0  0  0
   -1.2659   -4.4515    1.9227 C   0  0  0  0  0  0  0  0  0  0  0  0
    0.5121   -3.0987    0.9181 N   0  0  0  0  0  0  0  0  0  0  0  0
   -1.4649   -4.6333   -1.1723 N   0  0  0  0  0  0  0  0  0  0  0  0
   -1.8839   -2.4723   -1.3006 C   0  0  0  0  0  0  0  0  0  0  0  0
   -1.9032   -4.2911   -2.4007 C   0  0  0  0  0  0  0  0  0  0  0  0
   -1.0432   -5.9788   -0.7879 C   0  0  0  0  0  0  0  0  0  0  0  0
   -2.1643   -2.9754   -2.5169 N   0  0  0  0  0  0  0  0  0  0  0  0
    3.2807    3.5399   -2.1265 H   0  0  0  0  0  0  0  0  0  0  0  0
    3.7884    3.8783   -0.4943 H   0  0  0  0  0  0  0  0  0  0  0  0
    3.0225    1.1944   -2.1434 H   0  0  0  0  0  0  0  0  0  0  0  0
    3.8990    1.3146   -0.5968 H   0  0  0  0  0  0  0  0  0  0  0  0
   -0.1269    1.4243    0.7275 H   0  0  0  0  0  0  0  0  0  0  0  0
    3.7579    3.1780    1.4895 H   0  0  0  0  0  0  0  0  0  0  0  0
    1.6182    5.1626   -2.2030 H   0  0  0  0  0  0  0  0  0  0  0  0
    2.9145    5.8986   -1.2388 H   0  0  0  0  0  0  0  0  0  0  0  0
    2.3471   -0.2233    0.5103 H   0  0  0  0  0  0  0  0  0  0  0  0
    2.8979   -0.9410   -1.0374 H   0  0  0  0  0  0  0  0  0  0  0  0
    1.2481   -0.2357   -0.9251 H   0  0  0  0  0  0  0  0  0  0  0  0
    3.3365    3.0523    3.8733 H   0  0  0  0  0  0  0  0  0  0  0  0
   -0.9854    5.3570   -0.2642 H   0  0  0  0  0  0  0  0  0  0  0  0
   -0.3745    4.1049    0.7941 H   0  0  0  0  0  0  0  0  0  0  0  0
   -0.8819    3.9537   -3.2645 H   0  0  0  0  0  0  0  0  0  0  0  0
   -1.8942    2.7980   -2.3065 H   0  0  0  0  0  0  0  0  0  0  0  0
   -2.0271    4.5598   -2.0170 H   0  0  0  0  0  0  0  0  0  0  0  0
    1.6596    5.1977    0.8900 H   0  0  0  0  0  0  0  0  0  0  0  0
    0.9391    6.4740   -0.1075 H   0  0  0  0  0  0  0  0  0  0  0  0
    1.2084    2.1484    4.7345 H   0  0  0  0  0  0  0  0  0  0  0  0
    0.2105   -0.9768    2.1423 H   0  0  0  0  0  0  0  0  0  0  0  0
   -4.7447   -0.8615    2.3200 H   0  0  0  0  0  0  0  0  0  0  0  0
   -3.6268   -2.7673    1.2732 H   0  0  0  0  0  0  0  0  0  0  0  0
   -2.3188   -4.7868    1.8013 H   0  0  0  0  0  0  0  0  0  0  0  0
   -1.1173   -4.1535    2.9841 H   0  0  0  0  0  0  0  0  0  0  0  0
   -0.5886   -5.3120    1.7541 H   0  0  0  0  0  0  0  0  0  0  0  0
    0.7393   -2.3475    0.2271 H   0  0  0  0  0  0  0  0  0  0  0  0
    0.9529   -3.9722    0.5496 H   0  0  0  0  0  0  0  0  0  0  0  0
   -1.9519   -1.4200   -1.0598 H   0  0  0  0  0  0  0  0  0  0  0  0
   -2.0141   -4.9900   -3.2200 H   0  0  0  0  0  0  0  0  0  0  0  0
   -0.0062   -5.9589   -0.3962 H   0  0  0  0  0  0  0  0  0  0  0  0
   -1.7435   -6.3958   -0.0351 H   0  0  0  0  0  0  0  0  0  0  0  0
   -1.0548   -6.6553   -1.6686 H   0  0  0  0  0  0  0  0  0  0  0  0
  1  2  1  0
  1  3  1  0
  1  4  1  0
  1  5  1  6
  2  6  2  0
  2  7  1  0
  3  8  1  0
  3  9  2  0
  4 10  1  0
  5 11  1  0
  6 12  1  0
  7 13  2  0
  8 14  1  0
  8 15  1  0
 10 16  1  0
 14 16  1  0
 12 17  1  0
 12 18  2  0
 13 18  1  0
 17 19  1  0
 19 20  2  0
 19 21  1  0
 20 22  1  0
 20 23  1  0
 21 24  2  0
 22 25  2  0
 24 25  1  0
 23 26  3  0
 24 27  1  0
 27 28  1  0
 27 29  1  0
 27 30  1  6
 28 31  1  0
 28 32  2  0
 31 33  1  0
 31 34  1  0
 32 35  1  0
 33 35  2  0
  4 36  1  0
  4 37  1  0
  5 38  1  0
  5 39  1  0
  6 40  1  0
  7 41  1  0
 10 42  1  0
 10 43  1  0
 11 44  1  0
 11 45  1  0
 11 46  1  0
 13 47  1  0
 14 48  1  0
 14 49  1  0
 15 50  1  0
 15 51  1  0
 15 52  1  0
 16 53  1  0
 16 54  1  0
 18 55  1  0
 21 56  1  0
 22 57  1  0
 25 58  1  0
 29 59  1  0
 29 60  1  0
 29 61  1  0
 30 62  1  0
 30 63  1  0
 32 64  1  0
 33 65  1  0
 34 66  1  0
 34 67  1  0
 34 68  1  0
M  END
