7UXS_OJC_A_501
     RDKit          3D

 35 39  0  0  0  0  0  0  0  0999 V2000
   -6.2075   25.3908  -16.9263 N   0  0  0  0  0  0  0  0  0  0  0  0
   -6.9063   25.3659  -18.0683 C   0  0  0  0  0  0  0  0  0  0  0  0
  -10.9884   27.0279  -18.5561 O   0  0  0  0  0  0  0  0  0  0  0  0
   -6.8726   25.5238  -15.7599 C   0  0  0  0  0  0  0  0  0  0  0  0
   -8.2781   25.6008  -15.8155 C   0  0  0  0  0  0  0  0  0  0  0  0
   -8.8541   25.5408  -17.0683 C   0  0  0  0  0  0  0  0  0  0  0  0
  -16.7317   26.0198  -18.5295 C   0  0  0  0  0  0  0  0  0  0  0  0
  -16.5440   26.0261  -20.0273 C   0  0  2  0  0  0  0  0  0  0  0  0
  -16.2883   24.6101  -20.5535 C   0  0  2  0  0  0  0  0  0  0  0  0
  -15.0406   24.7675  -21.4231 C   0  0  2  0  0  0  0  0  0  0  0  0
  -14.3446   25.9482  -20.7545 C   0  0  1  0  0  0  0  0  0  0  0  0
  -10.3674   25.7799  -15.5072 C   0  0  0  0  0  0  0  0  0  0  0  0
  -11.2239   25.8061  -17.8863 C   0  0  2  0  0  0  0  0  0  0  0  0
  -12.6700   25.9150  -17.3919 C   0  0  1  0  0  0  0  0  0  0  0  0
  -13.3158   26.5049  -18.6488 C   0  0  1  0  0  0  0  0  0  0  0  0
  -12.2261   27.4315  -19.1913 C   0  0  1  0  0  0  0  0  0  0  0  0
  -12.4504   28.8991  -18.9262 C   0  0  0  0  0  0  0  0  0  0  0  0
   -8.2263   25.4287  -18.2408 N   0  0  0  0  0  0  0  0  0  0  0  0
  -10.2125   25.6683  -16.8643 N   0  0  0  0  0  0  0  0  0  0  0  0
   -9.2418   25.7535  -14.8318 N   0  0  0  0  0  0  0  0  0  0  0  0
   -6.1653   25.6049  -14.6153 N   0  0  0  0  0  0  0  0  0  0  0  0
  -12.8821   29.0774  -17.5486 O   0  0  0  0  0  0  0  0  0  0  0  0
  -15.3025   25.0623  -22.7922 O   0  0  0  0  0  0  0  0  0  0  0  0
  -17.3969   24.1082  -21.2911 O   0  0  0  0  0  0  0  0  0  0  0  0
  -13.1809   24.6523  -17.0155 O   0  0  0  0  0  0  0  0  0  0  0  0
  -15.0979   30.1644  -18.2544 O   0  0  0  0  0  0  0  0  0  0  0  0
  -14.1598   30.4386  -15.8846 O   0  0  0  0  0  0  0  0  0  0  0  0
  -15.0530   28.2284  -16.6598 O   0  0  0  0  0  0  0  0  0  0  0  0
  -17.4251   28.9602  -16.1872 O   0  0  0  0  0  0  0  0  0  0  0  0
  -16.5716   26.5946  -15.6782 O   0  0  0  0  0  0  0  0  0  0  0  0
  -16.9485   27.3466  -18.0098 O   0  0  0  0  0  0  0  0  0  0  0  0
  -15.4030   26.8217  -20.4015 O   0  0  0  0  0  0  0  0  0  0  0  0
  -13.6418   25.4851  -19.6104 O   0  0  0  0  0  0  0  0  0  0  0  0
  -14.3537   29.5782  -17.1300 P   0  0  2  0  0  0  0  0  0  0  0  0
  -16.5811   27.7915  -16.5455 P   0  0  2  0  0  0  0  0  0  0  0  0
  1  2  2  0
  1  4  1  0
  4  5  2  0
  5  6  1  0
  8  7  1  1
  8  9  1  0
  9 10  1  0
 10 11  1  0
  3 13  1  0
 13 14  1  0
 14 15  1  0
  3 16  1  0
 15 16  1  0
 16 17  1  1
  2 18  1  0
  6 18  2  0
  6 19  1  0
 12 19  1  0
 13 19  1  1
  5 20  1  0
 12 20  2  0
  4 21  1  0
 17 22  1  0
 10 23  1  6
  9 24  1  6
 14 25  1  6
  7 31  1  0
 11 32  1  0
  8 32  1  0
 15 33  1  6
 11 33  1  1
 28 34  1  0
 22 34  1  0
 34 27  1  1
 26 34  2  0
 35 30  1  1
 28 35  1  0
 31 35  1  0
 29 35  2  0
M  END
