7JNB_A2G_A_503
     RDKit          3D

 15 15  0  0  0  0  0  0  0  0999 V2000
   54.2461    8.4207   90.4093 O   0  0  0  0  0  0  0  0  0  0  0  0
   54.9585    8.7660   91.5225 C   0  0  2  0  0  0  0  0  0  0  0  0
   54.8048   10.0584   91.9537 O   0  0  0  0  0  0  0  0  0  0  0  0
   56.4295    8.4782   91.3216 C   0  0  2  0  0  0  0  0  0  0  0  0
   57.1810    8.6018   92.5418 N   0  0  0  0  0  0  0  0  0  0  0  0
   56.8814    9.3554   90.2005 C   0  0  1  0  0  0  0  0  0  0  0  0
   58.2465    9.3869   90.0074 O   0  0  0  0  0  0  0  0  0  0  0  0
   56.1368    8.8732   88.9682 C   0  0  1  0  0  0  0  0  0  0  0  0
   56.4893    7.5278   88.8326 O   0  0  0  0  0  0  0  0  0  0  0  0
   54.6548    8.9704   89.2243 C   0  0  1  0  0  0  0  0  0  0  0  0
   53.9491    8.1717   88.1219 C   0  0  0  0  0  0  0  0  0  0  0  0
   52.5715    8.3332   88.2526 O   0  0  0  0  0  0  0  0  0  0  0  0
   57.5488    7.4039   93.2555 C   0  0  0  0  0  0  0  0  0  0  0  0
   57.2970    6.2542   92.7597 O   0  0  0  0  0  0  0  0  0  0  0  0
   58.2305    7.5157   94.5866 C   0  0  0  0  0  0  0  0  0  0  0  0
  1  2  1  0
  2  3  1  6
  2  4  1  0
  4  5  1  1
  4  6  1  0
  6  7  1  6
  6  8  1  0
  8  9  1  1
 10  1  1  1
  8 10  1  0
 10 11  1  0
 11 12  1  6
  5 13  1  0
 13 14  2  0
 15 13  1  1
M  END
$$$$
