7OFK_VCH_A_601
     RDKit          3D

 53 55  0  0  0  0  0  0  0  0999 V2000
  -31.9080    1.5720  -13.3011 C   0  0  1  0  0  0  0  0  0  0  0  0
  -31.2550    2.2636  -14.4569 C   0  0  0  0  0  0  0  0  0  0  0  0
  -26.5138    0.6744  -15.0414 C   0  0  0  0  0  0  0  0  0  0  0  0
  -25.3178    1.3051  -15.4325 C   0  0  0  0  0  0  0  0  0  0  0  0
  -25.3088    2.6915  -15.6979 C   0  0  0  0  0  0  0  0  0  0  0  0
  -26.4883    3.4437  -15.5860 C   0  0  0  0  0  0  0  0  0  0  0  0
  -27.6618    2.7933  -15.1990 C   0  0  0  0  0  0  0  0  0  0  0  0
  -29.0158    3.3789  -15.0141 C   0  0  2  0  0  0  0  0  0  0  0  0
  -28.9995    4.4075  -13.9161 C   0  0  0  0  0  0  0  0  0  0  0  0
  -28.0061    6.5977  -14.7253 C   0  0  0  0  0  0  0  0  0  0  0  0
  -25.8926    8.2464  -15.6578 C   0  0  0  0  0  0  0  0  0  0  0  0
  -26.4979    7.2898  -16.5023 C   0  0  0  0  0  0  0  0  0  0  0  0
  -27.5494    6.4895  -16.0473 C   0  0  0  0  0  0  0  0  0  0  0  0
  -24.7082    9.1088  -16.1341 C   0  0  1  0  0  0  0  0  0  0  0  0
  -25.0561    9.8845  -17.4431 C   0  0  2  0  0  0  0  0  0  0  0  0
  -22.9312    0.4843  -14.0302 C   0  0  1  0  0  0  0  0  0  0  0  0
  -31.9717    2.8900  -15.2836 O   0  0  0  0  0  0  0  0  0  0  0  0
  -29.8288    2.2161  -14.6370 N   0  0  0  0  0  0  0  0  0  0  0  0
  -29.0331    0.9881  -14.5580 C   0  0  1  0  0  0  0  0  0  0  0  0
  -27.6731    1.4435  -14.9351 C   0  0  0  0  0  0  0  0  0  0  0  0
  -28.8969    4.0355  -12.7146 O   0  0  0  0  0  0  0  0  0  0  0  0
  -29.1013    5.8024  -14.2410 N   0  0  0  0  0  0  0  0  0  0  0  0
  -27.4125    7.5381  -13.8769 C   0  0  0  0  0  0  0  0  0  0  0  0
  -26.3604    8.3392  -14.3277 C   0  0  0  0  0  0  0  0  0  0  0  0
  -24.4274   10.0671  -15.1333 O   0  0  0  0  0  0  0  0  0  0  0  0
  -23.9317   10.5194  -17.9433 F   0  0  0  0  0  0  0  0  0  0  0  0
  -26.0118   10.8511  -17.1791 F   0  0  0  0  0  0  0  0  0  0  0  0
  -25.5334    9.0445  -18.4335 F   0  0  0  0  0  0  0  0  0  0  0  0
  -23.4659    8.1921  -16.3264 C   0  0  1  0  0  0  0  0  0  0  0  0
  -23.8352    6.8620  -16.4327 F   0  0  0  0  0  0  0  0  0  0  0  0
  -22.7707    8.5427  -17.4713 F   0  0  0  0  0  0  0  0  0  0  0  0
  -22.6156    8.3245  -15.2416 F   0  0  0  0  0  0  0  0  0  0  0  0
  -23.8312    0.3721  -15.5597 S   0  0  1  0  0  6  0  0  0  0  0  0
  -24.1570   -1.0667  -15.8479 O   0  0  0  0  0  0  0  0  0  0  0  0
  -22.9868    0.9092  -16.6812 O   0  0  0  0  0  0  0  0  0  0  0  0
  -31.3574    1.8045  -12.3660 H   0  0  0  0  0  0  0  0  0  0  0  0
  -32.9597    1.9105  -13.1876 H   0  0  0  0  0  0  0  0  0  0  0  0
  -31.9026    0.4752  -13.4701 H   0  0  0  0  0  0  0  0  0  0  0  0
  -26.5411   -0.3853  -14.8234 H   0  0  0  0  0  0  0  0  0  0  0  0
  -24.3909    3.1871  -15.9868 H   0  0  0  0  0  0  0  0  0  0  0  0
  -26.4862    4.5069  -15.7895 H   0  0  0  0  0  0  0  0  0  0  0  0
  -29.3814    3.8050  -15.9734 H   0  0  0  0  0  0  0  0  0  0  0  0
  -26.1650    7.1456  -17.5179 H   0  0  0  0  0  0  0  0  0  0  0  0
  -28.0151    5.8000  -16.7387 H   0  0  0  0  0  0  0  0  0  0  0  0
  -21.8432    0.5319  -14.2439 H   0  0  0  0  0  0  0  0  0  0  0  0
  -23.2398    1.3987  -13.4829 H   0  0  0  0  0  0  0  0  0  0  0  0
  -23.1457   -0.4087  -13.4074 H   0  0  0  0  0  0  0  0  0  0  0  0
  -29.0385    0.5874  -13.5222 H   0  0  0  0  0  0  0  0  0  0  0  0
  -29.4029    0.2355  -15.2862 H   0  0  0  0  0  0  0  0  0  0  0  0
  -30.0091    6.2837  -14.0495 H   0  0  0  0  0  0  0  0  0  0  0  0
  -27.7558    7.6393  -12.8546 H   0  0  0  0  0  0  0  0  0  0  0  0
  -25.9146    9.0288  -13.6230 H   0  0  0  0  0  0  0  0  0  0  0  0
  -23.6262   10.5899  -15.3980 H   0  0  0  0  0  0  0  0  0  0  0  0
  1  2  1  0
  3  4  2  0
  4  5  1  0
  5  6  2  0
  6  7  1  0
  7  8  1  0
  8  9  1  0
 11 12  2  0
 12 13  1  0
 10 13  2  0
 11 14  1  0
 14 15  1  0
  2 17  2  0
  8 18  1  0
  2 18  1  0
 18 19  1  0
  3 20  1  0
  7 20  2  0
 19 20  1  0
  9 21  2  0
 10 22  1  0
  9 22  1  0
 10 23  1  0
 11 24  1  0
 23 24  2  0
 14 25  1  1
 15 26  1  6
 15 27  1  0
 15 28  1  0
 14 29  1  0
 29 30  1  6
 29 31  1  0
 29 32  1  0
 16 33  1  0
 33  4  1  1
 33 34  2  0
 33 35  2  0
  1 36  1  1
  1 37  1  0
  1 38  1  0
  3 39  1  0
  5 40  1  0
  6 41  1  0
  8 42  1  6
 12 43  1  0
 13 44  1  0
 16 45  1  6
 16 46  1  0
 16 47  1  0
 19 48  1  1
 19 49  1  0
 22 50  1  0
 23 51  1  0
 24 52  1  0
 25 53  1  0
M  END
