6ZAE_ACV_A_403
     RDKit          3D

 49 48  0  0  0  0  0  0  0  0999 V2000
   52.8117   79.6059    2.8945 C   0  0  0  0  0  0  0  0  0  0  0  0
   53.6075   79.8635    4.1449 C   0  0  2  0  0  0  0  0  0  0  0  0
   55.0625   79.3734    3.9729 C   0  0  1  0  0  0  0  0  0  0  0  0
   55.5678   78.5161    5.1558 C   0  0  1  0  0  0  0  0  0  0  0  0
   54.5604   77.4503    5.6163 C   0  0  1  0  0  0  0  0  0  0  0  0
   54.2413   76.4674    4.5297 C   0  0  0  0  0  0  0  0  0  0  0  0
   54.4329   75.0617    4.7483 N   0  0  0  0  0  0  0  0  0  0  0  0
   55.5777   74.3382    4.1832 C   0  0  2  0  0  0  0  0  0  0  0  0
   56.3596   73.6385    5.2655 C   0  0  0  0  0  0  0  0  0  0  0  0
   52.9799   79.1699    5.2701 N   0  0  0  0  0  0  0  0  0  0  0  0
   53.8447   76.8900    3.4097 O   0  0  0  0  0  0  0  0  0  0  0  0
   56.4868   75.2703    3.3613 C   0  0  1  0  0  0  0  0  0  0  0  0
   56.2361   75.1070    1.5583 S   0  0  0  0  0  0  0  0  0  0  0  0
   55.8647   72.6346    5.8482 O   0  0  0  0  0  0  0  0  0  0  0  0
   53.1640   80.2317    1.7022 O   0  0  0  0  0  0  0  0  0  0  0  0
   51.8182   78.8309    2.9268 O   0  0  0  0  0  0  0  0  0  0  0  0
   57.6399   74.1514    5.6643 N   0  0  0  0  0  0  0  0  0  0  0  0
   57.8072   75.4404    6.3498 C   0  0  1  0  0  0  0  0  0  0  0  0
   59.2684   75.7699    6.5109 C   0  0  0  0  0  0  0  0  0  0  0  0
   57.0498   76.5783    5.6138 C   0  0  2  0  0  0  0  0  0  0  0  0
   55.5516   76.5509    5.9469 C   0  0  1  0  0  0  0  0  0  0  0  0
   57.2497   76.5501    4.0891 C   0  0  2  0  0  0  0  0  0  0  0  0
   60.0018   75.9668    5.5040 O   0  0  0  0  0  0  0  0  0  0  0  0
   59.8033   75.9020    7.7886 O   0  0  0  0  0  0  0  0  0  0  0  0
   53.6007   80.9543    4.3557 H   0  0  0  0  0  0  0  0  0  0  0  0
   55.1573   78.7976    3.0265 H   0  0  0  0  0  0  0  0  0  0  0  0
   55.7272   80.2587    3.8603 H   0  0  0  0  0  0  0  0  0  0  0  0
   56.4837   77.9803    4.8234 H   0  0  0  0  0  0  0  0  0  0  0  0
   55.8697   79.1498    6.0175 H   0  0  0  0  0  0  0  0  0  0  0  0
   54.9487   76.9191    6.5121 H   0  0  0  0  0  0  0  0  0  0  0  0
   53.6202   77.9576    5.9234 H   0  0  0  0  0  0  0  0  0  0  0  0
   53.7770   74.5726    5.3970 H   0  0  0  0  0  0  0  0  0  0  0  0
   55.1868   73.5699    3.4795 H   0  0  0  0  0  0  0  0  0  0  0  0
   53.6905   78.5359    5.7036 H   0  0  0  0  0  0  0  0  0  0  0  0
   52.7462   79.8776    6.0048 H   0  0  0  0  0  0  0  0  0  0  0  0
   56.2789   76.3247    3.6441 H   0  0  0  0  0  0  0  0  0  0  0  0
   57.5513   75.0631    3.6039 H   0  0  0  0  0  0  0  0  0  0  0  0
   54.8588   74.8424    1.6766 H   0  0  0  0  0  0  0  0  0  0  0  0
   54.0467   80.7205    1.6133 H   0  0  0  0  0  0  0  0  0  0  0  0
   58.4922   73.6258    5.3643 H   0  0  0  0  0  0  0  0  0  0  0  0
   57.3971   75.3686    7.3812 H   0  0  0  0  0  0  0  0  0  0  0  0
   57.4471   77.5495    5.9861 H   0  0  0  0  0  0  0  0  0  0  0  0
   55.0660   75.6539    5.5086 H   0  0  0  0  0  0  0  0  0  0  0  0
   55.4000   76.5417    7.0473 H   0  0  0  0  0  0  0  0  0  0  0  0
   55.0532   77.4562    5.5393 H   0  0  0  0  0  0  0  0  0  0  0  0
   56.4492   77.1389    3.5924 H   0  0  0  0  0  0  0  0  0  0  0  0
   57.2092   75.5111    3.6996 H   0  0  0  0  0  0  0  0  0  0  0  0
   58.2226   77.0055    3.8113 H   0  0  0  0  0  0  0  0  0  0  0  0
   60.4607   75.2212    8.1497 H   0  0  0  0  0  0  0  0  0  0  0  0
  1  2  1  0
  2  3  1  0
  3  4  1  0
  4  5  1  0
  5  6  1  0
  6  7  1  0
  7  8  1  0
  8  9  1  0
  2 10  1  0
  6 11  2  0
  8 12  1  0
 12 13  1  0
  9 14  2  0
  1 15  1  0
  1 16  2  0
  9 17  1  0
 18 17  1  0
 18 19  1  0
 18 20  1  0
 20 21  1  0
 20 22  1  0
 19 23  2  0
 19 24  1  0
  2 25  1  1
  3 26  1  6
  3 27  1  0
  4 28  1  6
  4 29  1  0
  5 30  1  1
  5 31  1  0
  7 32  1  0
  8 33  1  6
 10 34  1  0
 10 35  1  0
 12 36  1  1
 12 37  1  0
 13 38  1  0
 15 39  1  0
 17 40  1  0
 18 41  1  1
 20 42  1  1
 21 43  1  6
 21 44  1  0
 21 45  1  0
 22 46  1  6
 22 47  1  0
 22 48  1  0
 24 49  1  0
M  END
