
     RDKit          3D

 25 27  0  0  0  0  0  0  0  0999 V2000
   -0.6987    5.6453   31.0907 C   0  0  0  0  0  0  0  0  0  0  0  0
    2.8694    7.4398   29.5928 N   0  0  0  0  0  0  0  0  0  0  0  0
    0.4539    7.5512   30.1347 C   0  0  0  0  0  0  0  0  0  0  0  0
    1.6661    6.8431   30.0905 C   0  0  0  0  0  0  0  0  0  0  0  0
    1.6889    5.5067   30.5455 C   0  0  0  0  0  0  0  0  0  0  0  0
    0.5034    4.9269   31.0395 C   0  0  0  0  0  0  0  0  0  0  0  0
    2.9491    4.7376   30.4928 C   0  0  0  0  0  0  0  0  0  0  0  0
    2.8905    8.8174   29.1045 C   0  0  0  0  0  0  0  0  0  0  0  0
   -1.9662    5.0108   31.6089 C   0  0  0  0  0  0  0  0  0  0  0  0
    1.6872    7.1109   35.3319 C   0  0  0  0  0  0  0  0  0  0  0  0
    3.0061    3.3208   30.9855 C   0  0  0  0  0  0  0  0  0  0  0  0
   -0.0545    5.6138   34.5960 C   0  0  0  0  0  0  0  0  0  0  0  0
    0.3363    6.8620   35.0909 C   0  0  0  0  0  0  0  0  0  0  0  0
    2.6371    6.1213   35.0712 C   0  0  0  0  0  0  0  0  0  0  0  0
    2.2425    4.8822   34.5625 C   0  0  0  0  0  0  0  0  0  0  0  0
    0.8937    4.6249   34.3181 C   0  0  0  0  0  0  0  0  0  0  0  0
    2.8942    9.8316   30.2395 C   0  0  0  0  0  0  0  0  0  0  0  0
   -0.7125    6.9609   30.6271 C   0  0  0  0  0  0  0  0  0  0  0  0
    4.0417    5.3289   29.9916 C   0  0  0  0  0  0  0  0  0  0  0  0
    4.0519    6.7193   29.4930 C   0  0  0  0  0  0  0  0  0  0  0  0
   -1.7349    4.3770   32.8990 N   0  0  0  0  0  0  0  0  0  0  0  0
   -2.2660    4.4471   35.3432 O   0  0  0  0  0  0  0  0  0  0  0  0
   -2.4122    6.5617   33.9643 O   0  0  0  0  0  0  0  0  0  0  0  0
    5.1011    7.1584   29.0250 O   0  0  0  0  0  0  0  0  0  0  0  0
   -1.7756    5.3044   34.2876 S   0  0  1  0  0  6  0  0  0  0  0  0
  2  4  4  0
  3  4  4  0
  4  5  4  0
  5  6  4  0
  1  6  4  0
  5  7  4  0
  2  8  1  0
  1  9  1  0
  7 11  1  0
 10 13  4  0
 12 13  4  0
 10 14  4  0
 14 15  4  0
 12 16  4  0
 15 16  4  0
  8 17  1  0
  3 18  4  0
  1 18  4  0
  7 19  4  0
  2 20  4  0
 19 20  4  0
  9 21  1  0
 20 24  2  0
 25 21  1  6
 23 25  2  0
 12 25  1  0
 22 25  2  0
M  END
