@<TRIPOS>MOLECULE
1R55_097_A_518
 52 51 0 0 0
SMALL
GASTEIGER

@<TRIPOS>ATOM
      1 N           9.2380   13.3090   24.5120 N.am    1  UNL1       -0.3032
      2 C          11.0490   16.6580   24.4840 C.3     1  UNL1       -0.0626
      3 O          11.1370   12.5040   22.5230 O.2     1  UNL1       -0.2738
      4 C           9.3710   13.6010   25.8150 C.2     1  UNL1        0.2197
      5 O           7.7670   18.2020   29.0500 O.3     1  UNL1       -0.2951
      6 C           9.4500   11.9230   24.1200 C.3     1  UNL1        0.1042
      7 C           8.2890   11.4530   23.2340 C.3     1  UNL1       -0.0108
      8 C           8.1580   12.3860   22.0150 C.3     1  UNL1       -0.0579
      9 C           8.5450   10.0130   22.7590 C.3     1  UNL1       -0.0579
     10 C          10.7830   11.7330   23.4160 C.2     1  UNL1        0.2336
     11 C          12.7670   10.3810   23.2210 C.3     1  UNL1        0.0001
     12 N           7.9160   16.8480   28.8540 N.am    1  UNL1       -0.1953
     13 C           7.6330   16.5310   27.5810 C.2     1  UNL1        0.2648
     14 O           7.1610   17.3410   26.7870 O.2     1  UNL1       -0.2709
     15 C           7.9410   15.1230   27.1540 C.3     1  UNL1        0.1438
     16 O           6.7810   14.4760   26.6530 O.3     1  UNL1       -0.3817
     17 C           9.0900   15.0580   26.1490 C.3     1  UNL1        0.0703
     18 C          10.3530   15.7170   26.7200 C.3     1  UNL1       -0.0367
     19 C          11.4960   15.8800   25.7060 C.3     1  UNL1       -0.0459
     20 C          12.6810   16.5890   26.3600 C.3     1  UNL1       -0.0626
     21 O           9.6760   12.7950   26.6940 O.2     1  UNL1       -0.2754
     22 C           6.9900   11.5010   24.0580 C.3     1  UNL1       -0.0579
     23 N          11.5000   10.6890   23.8780 N.am    1  UNL1       -0.3168
     24 H           9.0074   14.0010   23.8508 H       1  UNL1        0.1495
     25 H          10.2193   16.1597   24.0278 H       1  UNL1        0.0232
     26 H          11.8567   16.7190   23.7849 H       1  UNL1        0.0232
     27 H          10.7555   17.6444   24.7769 H       1  UNL1        0.0232
     28 H           7.9738   18.4199   29.9723 H       1  UNL1        0.2414
     29 H           9.4788   11.3247   25.0067 H       1  UNL1        0.0600
     30 H           9.0609   12.3529   21.4419 H       1  UNL1        0.0236
     31 H           7.9843   13.3875   22.3494 H       1  UNL1        0.0236
     32 H           7.3378   12.0656   21.4072 H       1  UNL1        0.0236
     33 H           9.4484    9.9816   22.1864 H       1  UNL1        0.0236
     34 H           7.7264    9.6868   22.1520 H       1  UNL1        0.0236
     35 H           8.6383    9.3686   23.6081 H       1  UNL1        0.0236
     36 H          13.2176    9.5339   23.6945 H       1  UNL1        0.0426
     37 H          13.4226   11.2231   23.2978 H       1  UNL1        0.0426
     38 H          12.5893   10.1603   22.1892 H       1  UNL1        0.0426
     39 H           8.1904   16.2051   29.5472 H       1  UNL1        0.1823
     40 H           8.2654   14.5963   28.0271 H       1  UNL1        0.0698
     41 H           6.4699   14.9389   25.8594 H       1  UNL1        0.2105
     42 H           8.8105   15.5893   25.2633 H       1  UNL1        0.0425
     43 H          10.7076   15.1151   27.5305 H       1  UNL1        0.0276
     44 H          10.0721   16.7032   27.0256 H       1  UNL1        0.0276
     45 H          11.7915   14.9016   25.3894 H       1  UNL1        0.0296
     46 H          12.3819   17.5668   26.6752 H       1  UNL1        0.0232
     47 H          13.4812   16.6710   25.6545 H       1  UNL1        0.0232
     48 H          13.0097   16.0258   27.2083 H       1  UNL1        0.0232
     49 H           6.8135   12.5036   24.3876 H       1  UNL1        0.0236
     50 H           7.0826   10.8573   24.9077 H       1  UNL1        0.0236
     51 H           6.1707   11.1755   23.4516 H       1  UNL1        0.0236
     52 H          11.1786   10.1499   24.6365 H       1  UNL1        0.1484
@<TRIPOS>BOND
     1     1     4   am
     2     6     1    1
     3     6     7    1
     4     7     8    1
     5     7     9    1
     6     3    10    2
     7     6    10    1
     8     5    12    1
     9    12    13   am
    10    13    14    2
    11    13    15    1
    12    15    16    1
    13     4    17    1
    14    15    17    1
    15    17    18    1
    16     2    19    1
    17    18    19    1
    18    19    20    1
    19     4    21    2
    20     7    22    1
    21    10    23   am
    22    11    23    1
    23     1    24    1
    24     2    25    1
    25     2    26    1
    26     2    27    1
    27     5    28    1
    28     6    29    1
    29     8    30    1
    30     8    31    1
    31     8    32    1
    32     9    33    1
    33     9    34    1
    34     9    35    1
    35    11    36    1
    36    11    37    1
    37    11    38    1
    38    12    39    1
    39    15    40    1
    40    16    41    1
    41    17    42    1
    42    18    43    1
    43    18    44    1
    44    19    45    1
    45    20    46    1
    46    20    47    1
    47    20    48    1
    48    22    49    1
    49    22    50    1
    50    22    51    1
    51    23    52    1
