@<TRIPOS>MOLECULE
1R55_097_A_518
 52 51 0 0 0
SMALL
GASTEIGER

@<TRIPOS>ATOM
      1 N          -0.1693   -0.6810    0.6096 N.am    1  UNL1       -0.3032
      2 C           0.6454   -0.7368   -3.3097 C.3     1  UNL1       -0.0626
      3 O           2.1454   -0.1012    2.0549 O.2     1  UNL1       -0.2738
      4 C          -1.4777   -0.3305    0.1249 C.2     1  UNL1        0.2197
      5 O          -0.2454    3.5711   -4.4703 O.3     1  UNL1       -0.2951
      6 C           0.0594   -1.2970    1.9252 C.3     1  UNL1        0.1042
      7 C           0.3977   -2.8242    1.7973 C.3     1  UNL1       -0.0108
      8 C          -0.7950   -3.5654    1.1531 C.3     1  UNL1       -0.0579
      9 C           0.6333   -3.4368    3.1973 C.3     1  UNL1       -0.0579
     10 C           1.1220   -0.5140    2.6670 C.2     1  UNL1        0.2336
     11 C           1.9957    0.4632    4.8257 C.3     1  UNL1        0.0001
     12 N           0.0268    2.8071   -3.3856 N.am    1  UNL1       -0.1953
     13 C          -0.9699    2.5877   -2.3832 C.2     1  UNL1        0.2648
     14 O          -2.0947    3.1480   -2.4874 O.2     1  UNL1       -0.2709
     15 C          -0.6811    1.7035   -1.1952 C.3     1  UNL1        0.1438
     16 O          -0.8129    2.4659   -0.0220 O.3     1  UNL1       -0.3817
     17 C          -1.6592    0.5000   -1.1291 C.3     1  UNL1        0.0703
     18 C          -1.7402   -0.3813   -2.4100 C.3     1  UNL1       -0.0367
     19 C          -0.5884   -1.3937   -2.6715 C.3     1  UNL1       -0.0459
     20 C          -1.0893   -2.5203   -3.5887 C.3     1  UNL1       -0.0626
     21 O          -2.5039   -0.7370    0.7354 O.2     1  UNL1       -0.2754
     22 C           1.6555   -3.0676    0.9324 C.3     1  UNL1       -0.0579
     23 N           0.9807   -0.2611    4.0716 N.am    1  UNL1       -0.3168
     24 H           0.6562   -0.5046   -0.0039 H       1  UNL1        0.1495
     25 H           1.3480   -1.5114   -3.6851 H       1  UNL1        0.0232
     26 H           1.2113   -0.1477   -2.5669 H       1  UNL1        0.0232
     27 H           0.3545   -0.0870   -4.1623 H       1  UNL1        0.0232
     28 H           0.0305    4.4872   -4.2114 H       1  UNL1        0.2414
     29 H          -0.8724   -1.2098    2.5269 H       1  UNL1        0.0600
     30 H          -1.7208   -3.4107    1.7482 H       1  UNL1        0.0236
     31 H          -0.9806   -3.2067    0.1202 H       1  UNL1        0.0236
     32 H          -0.5982   -4.6581    1.0984 H       1  UNL1        0.0236
     33 H           0.7853   -4.5358    3.1270 H       1  UNL1        0.0236
     34 H           1.5375   -3.0053    3.6767 H       1  UNL1        0.0236
     35 H          -0.2397   -3.2494    3.8591 H       1  UNL1        0.0236
     36 H           2.9643   -0.0766    4.7673 H       1  UNL1        0.0426
     37 H           2.1142    1.4863    4.4109 H       1  UNL1        0.0426
     38 H           1.6913    0.5402    5.8908 H       1  UNL1        0.0426
     39 H           0.9692    2.3653   -3.3000 H       1  UNL1        0.1823
     40 H           0.3609    1.3380   -1.2595 H       1  UNL1        0.0698
     41 H          -0.0153    3.0556    0.0327 H       1  UNL1        0.2105
     42 H          -2.6701    0.9612   -1.0363 H       1  UNL1        0.0425
     43 H          -2.6884   -0.9574   -2.3158 H       1  UNL1        0.0276
     44 H          -1.8847    0.2589   -3.3065 H       1  UNL1        0.0276
     45 H          -0.2779   -1.8762   -1.7258 H       1  UNL1        0.0296
     46 H          -1.9418   -3.0534   -3.1159 H       1  UNL1        0.0232
     47 H          -1.4189   -2.1100   -4.5678 H       1  UNL1        0.0232
     48 H          -0.2845   -3.2663   -3.7635 H       1  UNL1        0.0232
     49 H           2.5474   -2.5782    1.3754 H       1  UNL1        0.0236
     50 H           1.8714   -4.1555    0.8597 H       1  UNL1        0.0236
     51 H           1.5155   -2.6853   -0.0999 H       1  UNL1        0.0236
     52 H           0.1364   -0.6117    4.5776 H       1  UNL1        0.1484
@<TRIPOS>BOND
     1     1     4   am
     2     6     1    1
     3     6     7    1
     4     7     8    1
     5     7     9    1
     6     3    10    2
     7     6    10    1
     8     5    12    1
     9    12    13   am
    10    13    14    2
    11    13    15    1
    12    15    16    1
    13     4    17    1
    14    15    17    1
    15    17    18    1
    16     2    19    1
    17    18    19    1
    18    19    20    1
    19     4    21    2
    20     7    22    1
    21    10    23   am
    22    11    23    1
    23     1    24    1
    24     2    25    1
    25     2    26    1
    26     2    27    1
    27     5    28    1
    28     6    29    1
    29     8    30    1
    30     8    31    1
    31     8    32    1
    32     9    33    1
    33     9    34    1
    34     9    35    1
    35    11    36    1
    36    11    37    1
    37    11    38    1
    38    12    39    1
    39    15    40    1
    40    16    41    1
    41    17    42    1
    42    18    43    1
    43    18    44    1
    44    19    45    1
    45    20    46    1
    46    20    47    1
    47    20    48    1
    48    22    49    1
    49    22    50    1
    50    22    51    1
    51    23    52    1
