1R55_097_A_518
     RDKit          3D

 52 51  0  0  0  0  0  0  0  0999 V2000
   -0.1693   -0.6810    0.6096 N   0  0  0  0  0  0  0  0  0  0  0  0
    0.6454   -0.7368   -3.3097 C   0  0  0  0  0  0  0  0  0  0  0  0
    2.1454   -0.1012    2.0549 O   0  0  0  0  0  0  0  0  0  0  0  0
   -1.4777   -0.3305    0.1249 C   0  0  0  0  0  0  0  0  0  0  0  0
   -0.2454    3.5711   -4.4703 O   0  0  0  0  0  0  0  0  0  0  0  0
    0.0594   -1.2970    1.9252 C   0  0  1  0  0  0  0  0  0  0  0  0
    0.3977   -2.8242    1.7973 C   0  0  0  0  0  0  0  0  0  0  0  0
   -0.7950   -3.5654    1.1531 C   0  0  0  0  0  0  0  0  0  0  0  0
    0.6333   -3.4368    3.1973 C   0  0  0  0  0  0  0  0  0  0  0  0
    1.1220   -0.5140    2.6670 C   0  0  0  0  0  0  0  0  0  0  0  0
    1.9957    0.4632    4.8257 C   0  0  0  0  0  0  0  0  0  0  0  0
    0.0268    2.8071   -3.3856 N   0  0  0  0  0  0  0  0  0  0  0  0
   -0.9699    2.5877   -2.3832 C   0  0  0  0  0  0  0  0  0  0  0  0
   -2.0947    3.1480   -2.4874 O   0  0  0  0  0  0  0  0  0  0  0  0
   -0.6811    1.7035   -1.1952 C   0  0  1  0  0  0  0  0  0  0  0  0
   -0.8129    2.4659   -0.0220 O   0  0  0  0  0  0  0  0  0  0  0  0
   -1.6592    0.5000   -1.1291 C   0  0  1  0  0  0  0  0  0  0  0  0
   -1.7402   -0.3813   -2.4100 C   0  0  0  0  0  0  0  0  0  0  0  0
   -0.5884   -1.3937   -2.6715 C   0  0  0  0  0  0  0  0  0  0  0  0
   -1.0893   -2.5203   -3.5887 C   0  0  0  0  0  0  0  0  0  0  0  0
   -2.5039   -0.7370    0.7354 O   0  0  0  0  0  0  0  0  0  0  0  0
    1.6555   -3.0676    0.9324 C   0  0  0  0  0  0  0  0  0  0  0  0
    0.9807   -0.2611    4.0716 N   0  0  0  0  0  0  0  0  0  0  0  0
    0.6562   -0.5046   -0.0039 H   0  0  0  0  0  0  0  0  0  0  0  0
    1.3480   -1.5114   -3.6851 H   0  0  0  0  0  0  0  0  0  0  0  0
    1.2113   -0.1477   -2.5669 H   0  0  0  0  0  0  0  0  0  0  0  0
    0.3545   -0.0870   -4.1623 H   0  0  0  0  0  0  0  0  0  0  0  0
    0.0305    4.4872   -4.2114 H   0  0  0  0  0  0  0  0  0  0  0  0
   -0.8724   -1.2098    2.5269 H   0  0  0  0  0  0  0  0  0  0  0  0
   -1.7208   -3.4107    1.7482 H   0  0  0  0  0  0  0  0  0  0  0  0
   -0.9806   -3.2067    0.1202 H   0  0  0  0  0  0  0  0  0  0  0  0
   -0.5982   -4.6581    1.0984 H   0  0  0  0  0  0  0  0  0  0  0  0
    0.7853   -4.5358    3.1270 H   0  0  0  0  0  0  0  0  0  0  0  0
    1.5375   -3.0053    3.6767 H   0  0  0  0  0  0  0  0  0  0  0  0
   -0.2397   -3.2494    3.8591 H   0  0  0  0  0  0  0  0  0  0  0  0
    2.9643   -0.0766    4.7673 H   0  0  0  0  0  0  0  0  0  0  0  0
    2.1142    1.4863    4.4109 H   0  0  0  0  0  0  0  0  0  0  0  0
    1.6913    0.5402    5.8908 H   0  0  0  0  0  0  0  0  0  0  0  0
    0.9692    2.3653   -3.3000 H   0  0  0  0  0  0  0  0  0  0  0  0
    0.3609    1.3380   -1.2595 H   0  0  0  0  0  0  0  0  0  0  0  0
   -0.0153    3.0556    0.0327 H   0  0  0  0  0  0  0  0  0  0  0  0
   -2.6701    0.9612   -1.0363 H   0  0  0  0  0  0  0  0  0  0  0  0
   -2.6884   -0.9574   -2.3158 H   0  0  0  0  0  0  0  0  0  0  0  0
   -1.8847    0.2589   -3.3065 H   0  0  0  0  0  0  0  0  0  0  0  0
   -0.2779   -1.8762   -1.7258 H   0  0  0  0  0  0  0  0  0  0  0  0
   -1.9418   -3.0534   -3.1159 H   0  0  0  0  0  0  0  0  0  0  0  0
   -1.4189   -2.1100   -4.5678 H   0  0  0  0  0  0  0  0  0  0  0  0
   -0.2845   -3.2663   -3.7635 H   0  0  0  0  0  0  0  0  0  0  0  0
    2.5474   -2.5782    1.3754 H   0  0  0  0  0  0  0  0  0  0  0  0
    1.8714   -4.1555    0.8597 H   0  0  0  0  0  0  0  0  0  0  0  0
    1.5155   -2.6853   -0.0999 H   0  0  0  0  0  0  0  0  0  0  0  0
    0.1364   -0.6117    4.5776 H   0  0  0  0  0  0  0  0  0  0  0  0
  1  4  1  0
  6  1  1  0
  6  7  1  0
  7  8  1  0
  7  9  1  0
  3 10  2  0
  6 10  1  0
  5 12  1  0
 12 13  1  0
 13 14  2  0
 13 15  1  0
 15 16  1  0
  4 17  1  0
 15 17  1  0
 17 18  1  0
  2 19  1  0
 18 19  1  0
 19 20  1  0
  4 21  2  0
  7 22  1  0
 10 23  1  0
 11 23  1  0
  1 24  1  0
  2 25  1  0
  2 26  1  0
  2 27  1  0
  5 28  1  0
  6 29  1  1
  8 30  1  0
  8 31  1  0
  8 32  1  0
  9 33  1  0
  9 34  1  0
  9 35  1  0
 11 36  1  0
 11 37  1  0
 11 38  1  0
 12 39  1  0
 15 40  1  6
 16 41  1  0
 17 42  1  1
 18 43  1  0
 18 44  1  0
 19 45  1  0
 20 46  1  0
 20 47  1  0
 20 48  1  0
 22 49  1  0
 22 50  1  0
 22 51  1  0
 23 52  1  0
M  END
