
     RDKit          3D

 18 18  0  0  0  0  0  0  0  0999 V2000
  -31.8233   21.1904   35.7019 C   0  0  1  0  0  0  0  0  0  0  0  0
  -31.2777   22.2560   36.5110 O   0  0  0  0  0  0  0  0  0  0  0  0
  -30.6956   20.5411   34.9195 C   0  0  1  0  0  0  0  0  0  0  0  0
  -29.6758   21.5032   34.5632 O   0  0  0  0  0  0  0  0  0  0  0  0
  -30.1687   19.4791   35.9057 C   0  0  1  0  0  0  0  0  0  0  0  0
  -31.1543   19.2642   36.9265 O   0  0  0  0  0  0  0  0  0  0  0  0
  -32.3327   20.0372   36.5722 C   0  0  2  0  0  0  0  0  0  0  0  0
  -33.3863   19.1593   35.8711 C   0  0  0  0  0  0  0  0  0  0  0  0
  -34.0885   19.9033   34.8910 O   0  0  0  0  0  0  0  0  0  0  0  0
  -29.8538   18.2216   35.3056 N   0  0  0  0  0  0  0  0  0  0  0  0
  -28.5592   17.7727   35.3173 C   0  0  0  0  0  0  0  0  0  0  0  0
  -27.8997   17.6491   36.3622 O   0  0  0  0  0  0  0  0  0  0  0  0
  -27.9848   17.3851   33.9463 C   0  0  0  0  0  0  0  0  0  0  0  0
  -26.5367   17.0326   34.1004 N   0  0  0  0  0  0  0  0  0  0  0  0
  -35.7086   20.0292   35.0396 P   0  0  0  0  0  5  0  0  0  0  0  0
  -35.8843   21.0813   36.1204 O   0  0  0  0  0  0  0  0  0  0  0  0
  -36.1306   18.6207   35.4358 O   0  0  0  0  0  1  0  0  0  0  0  0
  -36.1484   20.4014   33.6325 O   0  0  0  0  0  1  0  0  0  0  0  0
  1  2  1  1
  1  3  1  0
  3  4  1  1
  3  5  1  0
  5  6  1  0
  1  7  1  0
  6  7  1  0
  7  8  1  6
  8  9  1  0
  5 10  1  6
 10 11  1  0
 11 12  2  0
 11 13  1  0
 13 14  1  0
  9 15  1  0
 15 16  2  0
 15 17  1  0
 15 18  1  0
M  CHG  2  17  -1  18  -1
M  END
