8G0V_YHT_C_701
     RDKit          3D

 26 28  0  0  0  0  0  0  0  0999 V2000
  -11.6257   17.2393  -32.4237 C   0  0  1  0  0  0  0  0  0  0  0  0
  -11.2695   18.6265  -32.9348 C   0  0  2  0  0  0  0  0  0  0  0  0
  -12.5053   19.4152  -32.5853 C   0  0  2  0  0  0  0  0  0  0  0  0
  -12.2184   21.4919  -31.2204 C   0  0  0  0  0  0  0  0  0  0  0  0
  -11.7680   22.9375  -32.8230 C   0  0  0  0  0  0  0  0  0  0  0  0
  -11.9694   21.6802  -33.3671 C   0  0  0  0  0  0  0  0  0  0  0  0
  -13.2966   20.3496  -27.2114 C   0  0  0  0  0  0  0  0  0  0  0  0
  -12.4609   21.1730  -26.9318 C   0  0  0  0  0  0  0  0  0  0  0  0
  -13.3115   16.4908  -30.7229 C   0  0  0  0  0  0  0  0  0  0  0  0
  -14.3043   19.3208  -27.5577 C   0  0  0  0  0  0  0  0  0  0  0  0
  -11.5728   22.6081  -35.4907 C   0  0  0  0  0  0  0  0  0  0  0  0
  -11.4674   24.0285  -33.6324 C   0  0  0  0  0  0  0  0  0  0  0  0
  -12.9624   17.4669  -31.8111 C   0  0  1  0  0  0  0  0  0  0  0  0
  -12.2436   20.8068  -32.3779 N   0  0  0  0  0  0  0  0  0  0  0  0
  -11.9307   22.7828  -31.4865 N   0  0  0  0  0  0  0  0  0  0  0  0
  -11.8633   21.5538  -34.7080 N   0  0  0  0  0  0  0  0  0  0  0  0
  -11.3714   23.8532  -34.9720 N   0  0  0  0  0  0  0  0  0  0  0  0
  -11.2619   25.3192  -33.0611 N   0  0  0  0  0  0  0  0  0  0  0  0
  -11.7671   16.3694  -33.5282 O   0  0  0  0  0  0  0  0  0  0  0  0
  -12.9087   18.7843  -31.4080 O   0  0  0  0  0  0  0  0  0  0  0  0
  -11.0190   18.6079  -34.3082 O   0  0  0  0  0  0  0  0  0  0  0  0
  -14.5854   16.6355  -30.2297 O   0  0  0  0  0  0  0  0  0  0  0  0
  -16.1720   17.3169  -28.0856 O   0  0  0  0  0  0  0  0  0  0  0  0
  -13.6276   18.2890  -28.1663 O   0  0  0  0  0  0  0  0  0  0  0  0
  -14.1377   15.7156  -27.8422 O   0  0  0  0  0  0  0  0  0  0  0  0
  -14.5789   16.9749  -28.5767 P   0  0  2  0  0  5  0  0  0  0  0  0
  1  2  1  0
  2  3  1  0
  5  6  2  0
  7  8  3  0
 10  7  1  6
  5 12  1  0
 13  9  1  0
  1 13  1  0
  4 14  1  0
  6 14  1  0
  3 14  1  1
  4 15  2  0
  5 15  1  0
  6 16  1  0
 11 16  2  0
 12 17  2  0
 11 17  1  0
 12 18  1  0
  1 19  1  6
  3 20  1  0
 13 20  1  1
  2 21  1  6
  9 22  1  6
 10 24  1  0
 25 26  2  0
 26 24  1  0
 22 26  1  0
 26 23  1  1
M  END
$$$$
