1K3U_IAD_A_801
     RDKit          3D

 21 22  0  0  0  0  0  0  0  0999 V2000
   63.2241   12.3869   29.9056 O   0  0  0  0  0  0  0  0  0  0  0  0
   62.9586   12.9045   31.1669 C   0  0  0  0  0  0  0  0  0  0  0  0
   61.8230   12.6498   31.6495 O   0  0  0  0  0  0  0  0  0  0  0  0
   63.9120   13.7119   31.9427 C   0  0  0  0  0  0  0  0  0  0  0  0
   63.3800   13.9702   33.3105 C   0  0  1  0  0  0  0  0  0  0  0  0
   63.0529   12.6832   34.0269 C   0  0  0  0  0  0  0  0  0  0  0  0
   63.9125   12.0639   34.7033 O   0  0  0  0  0  0  0  0  0  0  0  0
   61.7637   12.1351   33.9571 O   0  0  0  0  0  0  0  0  0  0  0  0
   64.1759   14.8193   34.1425 N   0  0  0  0  0  0  0  0  0  0  0  0
   64.4051   16.1914   33.8584 C   0  0  0  0  0  0  0  0  0  0  0  0
   63.8789   16.8123   32.9073 O   0  0  0  0  0  0  0  0  0  0  0  0
   65.3323   16.9860   34.7310 C   0  0  0  0  0  0  0  0  0  0  0  0
   65.3903   18.4004   34.2793 C   0  0  0  0  0  0  0  0  0  0  0  0
   64.9103   19.4870   34.9809 C   0  0  0  0  0  0  0  0  0  0  0  0
   65.1353   20.6048   34.2646 N   0  0  0  0  0  0  0  0  0  0  0  0
   65.9245   18.8747   33.0970 C   0  0  0  0  0  0  0  0  0  0  0  0
   66.5289   18.2111   32.0464 C   0  0  0  0  0  0  0  0  0  0  0  0
   65.7550   20.2448   33.1100 C   0  0  0  0  0  0  0  0  0  0  0  0
   66.2178   20.9487   32.0179 C   0  0  0  0  0  0  0  0  0  0  0  0
   66.8224   20.3372   30.9547 C   0  0  0  0  0  0  0  0  0  0  0  0
   66.9789   18.9664   30.9678 C   0  0  0  0  0  0  0  0  0  0  0  0
  1  2  1  0
  2  3  2  0
  4  2  1  1
  5  4  1  0
  5  6  1  0
  6  7  2  0
  6  8  1  0
  5  9  1  1
  9 10  1  0
 10 11  2  0
 12 10  1  6
 12 13  1  0
 13 14  2  0
 14 15  1  0
 13 16  1  0
 16 17  2  0
 15 18  1  0
 16 18  1  0
 18 19  2  0
 19 20  1  0
 17 21  1  0
 20 21  2  0
M  END
$$$$
