7NGW_UAW_A_301
     RDKit          3D

 17 18  0  0  0  0  0  0  0  0999 V2000
   -5.9714  -28.1682    5.8558 C   0  0  0  0  0  0  0  0  0  0  0  0
   -4.4562  -26.4647    4.8523 C   0  0  0  0  0  0  0  0  0  0  0  0
   -3.1386  -24.3787    4.4287 C   0  0  0  0  0  0  0  0  0  0  0  0
   -2.9904  -23.1905    3.7218 C   0  0  0  0  0  0  0  0  0  0  0  0
   -2.1637  -24.8189    5.3190 C   0  0  0  0  0  0  0  0  0  0  0  0
   -1.0269  -24.0262    5.4809 C   0  0  0  0  0  0  0  0  0  0  0  0
   -0.8803  -22.8453    4.7779 C   0  0  0  0  0  0  0  0  0  0  0  0
   -1.8496  -22.4070    3.8923 C   0  0  0  0  0  0  0  0  0  0  0  0
   -6.9407  -26.2729    4.5208 C   0  0  0  0  0  0  0  0  0  0  0  0
   -8.1499  -26.8604    5.2186 C   0  0  0  0  0  0  0  0  0  0  0  0
   -5.7743  -26.9702    5.0786 N   0  0  0  0  0  0  0  0  0  0  0  0
   -4.2951  -25.1866    4.2650 N   0  0  0  0  0  0  0  0  0  0  0  0
   -7.0773  -29.0482    5.3728 C   0  0  0  0  0  0  0  0  0  0  0  0
   -9.5745  -28.8378    5.2952 C   0  0  0  0  0  0  0  0  0  0  0  0
   -8.2382  -28.3119    4.7853 C   0  0  1  0  0  0  0  0  0  0  0  0
   -3.4608  -27.1474    5.1710 O   0  0  0  0  0  0  0  0  0  0  0  0
    0.2709  -22.0875    4.9720 O   0  0  0  0  0  0  0  0  0  0  0  0
  3  4  2  0
  3  5  1  0
  5  6  2  0
  6  7  1  0
  4  8  1  0
  7  8  2  0
  9 10  1  0
  2 11  1  0
  9 11  1  0
  1 11  1  0
  3 12  1  0
  2 12  1  0
  1 13  1  0
 10 15  1  0
 13 15  1  0
 15 14  1  1
  2 16  2  0
  7 17  1  0
M  END
$$$$
