7REE_4LY_A_1201
     RDKit          3D

 71 76  0  0  0  0  0  0  0  0999 V2000
   -1.3559  -16.5281   11.8708 C   0  0  0  0  0  0  0  0  0  0  0  0
    1.7873  -17.2717   11.2524 C   0  0  0  0  0  0  0  0  0  0  0  0
    1.3848  -18.5248   10.8306 C   0  0  0  0  0  0  0  0  0  0  0  0
    4.9833  -13.2770   11.3198 C   0  0  0  0  0  0  0  0  0  0  0  0
    6.1166  -14.0563   11.0356 C   0  0  0  0  0  0  0  0  0  0  0  0
    8.1909  -11.6581    8.9543 C   0  0  0  0  0  0  0  0  0  0  0  0
    9.7715   -9.7126    8.8046 C   0  0  0  0  0  0  0  0  0  0  0  0
   -4.4399  -15.5946   11.6553 C   0  0  0  0  0  0  0  0  0  0  0  0
   -3.7966  -16.7455   12.4321 C   0  0  2  0  0  0  0  0  0  0  0  0
   -4.0816  -18.1560   11.8785 C   0  0  0  0  0  0  0  0  0  0  0  0
   -3.8673  -19.1838   12.9047 C   0  0  0  0  0  0  0  0  0  0  0  0
   -0.1785  -16.3969   12.5781 C   0  0  0  0  0  0  0  0  0  0  0  0
    1.1941  -16.2899   12.0514 C   0  0  0  0  0  0  0  0  0  0  0  0
    3.0475  -17.0803   10.7699 C   0  0  0  0  0  0  0  0  0  0  0  0
    2.4492  -19.0174   10.0801 C   0  0  0  0  0  0  0  0  0  0  0  0
    3.2047  -15.0049   11.8425 C   0  0  0  0  0  0  0  0  0  0  0  0
    7.1612  -13.5337   10.2673 C   0  0  0  0  0  0  0  0  0  0  0  0
    7.0925  -12.2148    9.7782 C   0  0  0  0  0  0  0  0  0  0  0  0
    9.3750  -10.9824    9.5928 C   0  0  0  0  0  0  0  0  0  0  0  0
    8.7333   -8.8492    6.7584 C   0  0  0  0  0  0  0  0  0  0  0  0
    9.3341  -11.2044    6.8459 C   0  0  0  0  0  0  0  0  0  0  0  0
    8.1882  -11.7819    7.6244 C   0  0  0  0  0  0  0  0  0  0  0  0
    5.9635  -11.4311   10.0779 C   0  0  0  0  0  0  0  0  0  0  0  0
    4.9255  -11.9574   10.8526 C   0  0  0  0  0  0  0  0  0  0  0  0
   -0.5624  -16.3146   13.9030 C   0  0  0  0  0  0  0  0  0  0  0  0
   -4.7363  -16.3185   13.5622 C   0  0  0  0  0  0  0  0  0  0  0  0
   -6.1713  -12.4851   13.1748 C   0  0  0  0  0  0  0  0  0  0  0  0
   -6.2037  -11.4527   14.2946 C   0  0  0  0  0  0  0  0  0  0  0  0
    8.2275  -14.3242    9.9822 F   0  0  0  0  0  0  0  0  0  0  0  0
    5.8765  -10.1469    9.6451 F   0  0  0  0  0  0  0  0  0  0  0  0
   -5.3158  -15.2218   12.7748 N   0  0  0  0  0  0  0  0  0  0  0  0
   -3.6959  -19.9922   13.7162 N   0  0  0  0  0  0  0  0  0  0  0  0
   -2.3775  -16.5247   12.7505 N   0  0  0  0  0  4  0  0  0  0  0  0
    3.4665  -18.1270   10.0450 N   0  0  0  0  0  4  0  0  0  0  0  0
    3.7635  -15.9643   11.0440 N   0  0  0  0  0  0  0  0  0  0  0  0
    3.9098  -13.7880   12.1264 N   0  0  0  0  0  0  0  0  0  0  0  0
    9.6659   -9.8417    7.3196 N   0  0  0  0  0  0  0  0  0  0  0  0
    1.9347  -15.1753   12.3290 N   0  0  0  0  0  0  0  0  0  0  0  0
   -1.9031  -16.4197   13.9839 N   0  0  0  0  0  0  0  0  0  0  0  0
   -4.6193  -13.8154   14.9157 O   0  0  0  0  0  0  0  0  0  0  0  0
   -3.6019  -13.1577   12.7865 O   0  0  0  0  0  0  0  0  0  0  0  0
   -4.8587  -13.6682   13.4383 S   0  0  2  0  0  6  0  0  0  0  0  0
   -1.4673  -16.5965   10.7976 H   0  0  0  0  0  0  0  0  0  0  0  0
    0.4625  -19.0420   11.0549 H   0  0  0  0  0  0  0  0  0  0  0  0
    6.2030  -15.0635   11.4229 H   0  0  0  0  0  0  0  0  0  0  0  0
    9.1487   -8.8700    9.1882 H   0  0  0  0  0  0  0  0  0  0  0  0
   10.8233   -9.4586    9.0599 H   0  0  0  0  0  0  0  0  0  0  0  0
   -5.0500  -15.9381   10.7908 H   0  0  0  0  0  0  0  0  0  0  0  0
   -3.7263  -14.7973   11.3502 H   0  0  0  0  0  0  0  0  0  0  0  0
   -3.4195  -18.3816   11.0151 H   0  0  0  0  0  0  0  0  0  0  0  0
   -5.1356  -18.2104   11.5317 H   0  0  0  0  0  0  0  0  0  0  0  0
    2.4809  -19.9872    9.6010 H   0  0  0  0  0  0  0  0  0  0  0  0
    9.1464  -10.7029   10.6449 H   0  0  0  0  0  0  0  0  0  0  0  0
   10.2300  -11.6944    9.6041 H   0  0  0  0  0  0  0  0  0  0  0  0
    9.0582   -7.8233    7.0351 H   0  0  0  0  0  0  0  0  0  0  0  0
    8.7320   -8.9026    5.6480 H   0  0  0  0  0  0  0  0  0  0  0  0
    7.6994   -9.0160    7.1340 H   0  0  0  0  0  0  0  0  0  0  0  0
   10.2242  -11.8564    6.9830 H   0  0  0  0  0  0  0  0  0  0  0  0
    9.0974  -11.2102    5.7589 H   0  0  0  0  0  0  0  0  0  0  0  0
    7.3704  -12.2676    7.1041 H   0  0  0  0  0  0  0  0  0  0  0  0
    4.0667  -11.3386   11.0825 H   0  0  0  0  0  0  0  0  0  0  0  0
    0.0922  -16.2020   14.7567 H   0  0  0  0  0  0  0  0  0  0  0  0
   -4.2180  -15.9895   14.4919 H   0  0  0  0  0  0  0  0  0  0  0  0
   -5.5171  -17.0766   13.7926 H   0  0  0  0  0  0  0  0  0  0  0  0
   -7.1454  -13.0184   13.1337 H   0  0  0  0  0  0  0  0  0  0  0  0
   -6.0061  -11.9724   12.2031 H   0  0  0  0  0  0  0  0  0  0  0  0
   -5.2346  -10.9129   14.3477 H   0  0  0  0  0  0  0  0  0  0  0  0
   -7.0104  -10.7157   14.0970 H   0  0  0  0  0  0  0  0  0  0  0  0
   -6.4065  -11.9461   15.2691 H   0  0  0  0  0  0  0  0  0  0  0  0
    4.3888  -18.2409    9.5694 H   0  0  0  0  0  0  0  0  0  0  0  0
    3.5454  -13.1863   12.9000 H   0  0  0  0  0  0  0  0  0  0  0  0
  2  3  4  0
  4  5  4  0
  8  9  1  0
  9 10  1  6
 10 11  1  0
  1 12  4  0
 12 13  1  0
  2 13  4  0
  2 14  4  0
  3 15  4  0
  5 17  4  0
  6 18  1  0
 17 18  4  0
  6 19  1  0
  7 19  1  0
 21 22  1  0
  6 22  2  0
 18 23  4  0
 23 24  4  0
  4 24  4  0
 12 25  4  0
  9 26  1  0
 27 28  1  0
 17 29  1  0
 23 30  1  0
  8 31  1  0
 26 31  1  0
 11 32  3  0
  9 33  1  0
  1 33  4  0
 15 34  4  0
 14 34  4  0
 16 35  4  0
 14 35  4  0
 16 36  1  0
  4 36  1  0
 21 37  1  0
 20 37  1  0
  7 37  1  0
 13 38  4  0
 16 38  4  0
 25 39  4  0
 33 39  4  0
 41 42  2  0
 40 42  2  0
 42 27  1  1
 31 42  1  0
  1 43  1  0
  3 44  1  0
  5 45  1  0
  7 46  1  0
  7 47  1  0
  8 48  1  0
  8 49  1  0
 10 50  1  0
 10 51  1  0
 15 52  1  0
 19 53  1  0
 19 54  1  0
 20 55  1  0
 20 56  1  0
 20 57  1  0
 21 58  1  0
 21 59  1  0
 22 60  1  0
 24 61  1  0
 25 62  1  0
 26 63  1  0
 26 64  1  0
 27 65  1  0
 27 66  1  0
 28 67  1  0
 28 68  1  0
 28 69  1  0
 34 70  1  0
 36 71  1  0
M  CHG  2  33   1  34   1
M  END
