6M2B_EZO_A_403
     RDKit          3D

 25 27  0  0  0  0  0  0  0  0999 V2000
   35.8579  -19.8615   24.1190 C   0  0  0  0  0  0  0  0  0  0  0  0
   35.3373  -20.3509   25.2844 C   0  0  0  0  0  0  0  0  0  0  0  0
   34.0220  -20.7370   25.2934 C   0  0  0  0  0  0  0  0  0  0  0  0
   33.1796  -20.6599   24.1810 C   0  0  0  0  0  0  0  0  0  0  0  0
   33.7077  -20.1660   23.0089 C   0  0  0  0  0  0  0  0  0  0  0  0
   35.0502  -19.7791   23.0242 C   0  0  0  0  0  0  0  0  0  0  0  0
   32.9692  -20.0268   21.7800 C   0  0  0  0  0  0  0  0  0  0  0  0
   31.8113  -21.1038   24.3299 C   0  0  0  0  0  0  0  0  0  0  0  0
   28.9401  -22.3629   23.0297 C   0  0  0  0  0  0  0  0  0  0  0  0
   33.7039  -19.6413   20.6383 O   0  0  0  0  0  0  0  0  0  0  0  0
   31.7635  -20.1968   21.5659 O   0  0  0  0  0  0  0  0  0  0  0  0
   31.2463  -22.1490   23.9312 N   0  0  0  0  0  0  0  0  0  0  0  0
   29.9182  -22.4025   24.1375 N   0  0  0  0  0  0  0  0  0  0  0  0
   27.8202  -22.4119   22.8080 N   0  0  0  0  0  0  0  0  0  0  0  0
   27.1382  -22.3344   21.6548 C   0  0  0  0  0  0  0  0  0  0  0  0
   27.9376  -22.1756   20.6373 C   0  0  0  0  0  0  0  0  0  0  0  0
   29.6653  -22.1326   21.2912 S   0  0  0  0  0  0  0  0  0  0  0  0
   25.6755  -22.4593   21.6219 C   0  0  0  0  0  0  0  0  0  0  0  0
   24.9488  -22.5235   20.4605 C   0  0  0  0  0  0  0  0  0  0  0  0
   23.5467  -22.6164   20.4687 C   0  0  0  0  0  0  0  0  0  0  0  0
   22.8546  -22.6443   21.6532 C   0  0  0  0  0  0  0  0  0  0  0  0
   23.5651  -22.5794   22.8272 C   0  0  0  0  0  0  0  0  0  0  0  0
   24.9309  -22.4901   22.8026 C   0  0  0  0  0  0  0  0  0  0  0  0
   25.6844  -22.4590   18.8814 Cl  0  0  0  0  0  0  0  0  0  0  0  0
   29.4375  -22.7138   25.4584 C   0  0  0  0  0  0  0  0  0  0  0  0
  1  2  2  0
  2  3  1  0
  3  4  2  0
  4  5  1  0
  1  6  1  0
  5  6  2  0
  5  7  1  0
  4  8  1  0
  7 10  1  0
  7 11  2  0
  8 12  2  0
  9 13  1  0
 12 13  1  0
  9 14  2  0
 14 15  1  0
 15 16  2  0
 16 17  1  0
  9 17  1  0
 15 18  1  0
 18 19  2  0
 19 20  1  0
 20 21  2  0
 21 22  1  0
 22 23  2  0
 18 23  1  0
 19 24  1  0
 25 13  1  1
M  END
$$$$
