7P2W_4QR_A_301
     RDKit          3D

 34 37  0  0  0  0  0  0  0  0999 V2000
  -26.0830    6.9642   -4.5462 N   0  0  0  0  0  0  0  0  0  0  0  0
  -25.6407    4.6448   -3.1053 N   0  0  0  0  0  0  0  0  0  0  0  0
  -28.0768    8.2854   -3.9789 C   0  0  0  0  0  0  0  0  0  0  0  0
  -26.8229    8.1193   -4.5435 C   0  0  0  0  0  0  0  0  0  0  0  0
  -26.1931    9.2335   -5.1231 C   0  0  0  0  0  0  0  0  0  0  0  0
  -24.9391    7.1843   -5.1184 C   0  0  0  0  0  0  0  0  0  0  0  0
  -28.7653   11.9604   -4.6469 C   0  0  0  0  0  0  0  0  0  0  0  0
  -29.1637    4.9902   -2.8331 C   0  0  0  0  0  0  0  0  0  0  0  0
  -31.0305    3.0888   -2.0828 C   0  0  0  0  0  0  0  0  0  0  0  0
  -30.3001    4.7749   -3.6050 C   0  0  0  0  0  0  0  0  0  0  0  0
  -23.6180    5.3675   -4.2748 C   0  0  0  0  0  0  0  0  0  0  0  0
  -25.7838    2.4831   -3.4150 C   0  0  0  0  0  0  0  0  0  0  0  0
  -26.3963    3.5424   -2.8535 C   0  0  0  0  0  0  0  0  0  0  0  0
  -27.6730    3.5878   -2.0930 C   0  0  0  0  0  0  0  0  0  0  0  0
  -26.8197   10.4687   -5.1780 C   0  0  0  0  0  0  0  0  0  0  0  0
  -28.0953   10.6086   -4.6288 C   0  0  0  0  0  0  0  0  0  0  0  0
  -28.7040    9.5210   -4.0198 C   0  0  0  0  0  0  0  0  0  0  0  0
  -24.6188    8.7958   -5.7141 S   0  0  0  0  0  0  0  0  0  0  0  0
  -29.6326   12.1625   -5.5532 O   0  0  0  0  0  0  0  0  0  0  0  0
  -28.3795   12.8251   -3.7965 O   0  0  0  0  0  0  0  0  0  0  0  0
  -28.7622    7.2344   -3.4570 O   0  0  0  0  0  0  0  0  0  0  0  0
  -28.1392    5.9801   -3.2791 C   0  0  0  0  0  0  0  0  0  0  0  0
  -28.9347    4.2060   -1.7125 C   0  0  0  0  0  0  0  0  0  0  0  0
  -29.8846    3.2700   -1.3292 C   0  0  0  0  0  0  0  0  0  0  0  0
  -31.2589    3.8415   -3.2212 C   0  0  0  0  0  0  0  0  0  0  0  0
  -32.4800    3.5951   -4.0855 C   0  0  0  0  0  0  0  0  0  0  0  0
  -33.2734    2.7069   -3.7293 O   0  0  0  0  0  0  0  0  0  0  0  0
  -32.5800    4.2340   -5.1720 O   0  0  0  0  0  0  0  0  0  0  0  0
  -24.0385    6.1584   -5.2755 N   0  0  0  0  0  0  0  0  0  0  0  0
  -24.5316    4.2982   -3.8435 C   0  0  0  0  0  0  0  0  0  0  0  0
  -24.6215    2.9251   -4.0432 C   0  0  0  0  0  0  0  0  0  0  0  0
  -22.5210    5.5136   -3.7373 O   0  0  0  0  0  0  0  0  0  0  0  0
  -23.5474    1.9019   -4.8923 Cl  0  0  0  0  0  0  0  0  0  0  0  0
  -26.3829    0.8870   -3.4016 Cl  0  0  0  0  0  0  0  0  0  0  0  0
  3  4  2  0
  1  4  1  0
  4  5  1  0
  1  6  2  0
  8 10  1  0
 12 13  2  0
  2 13  1  0
 13 14  1  0
  5 15  2  0
 15 16  1  0
  7 16  1  0
  3 17  1  0
 16 17  2  0
  6 18  1  0
  5 18  1  0
  7 19  1  0
  7 20  2  0
  3 21  1  0
  8 22  1  0
 21 22  1  0
  8 23  2  0
  9 24  2  0
 23 24  1  0
  9 25  1  0
 10 25  2  0
 25 26  1  0
 26 27  2  0
 26 28  1  0
  6 29  1  0
 11 29  1  0
 11 30  1  0
  2 30  1  0
 12 31  1  0
 30 31  2  0
 11 32  2  0
 31 33  1  0
 12 34  1  0
M  END
