7JR8_VH7_A_205
     RDKit          3D

 55 58  0  0  0  0  0  0  0  0999 V2000
    8.2737  -25.1345   62.4816 C   0  0  2  0  0  0  0  0  0  0  0  0
    6.9031  -25.6608   62.0177 C   0  0  2  0  0  0  0  0  0  0  0  0
    5.8338  -25.3695   63.0855 C   0  0  2  0  0  0  0  0  0  0  0  0
    7.9302  -21.6074   65.6437 C   0  0  2  0  0  0  0  0  0  0  0  0
    7.1418  -21.8352   64.3317 C   0  0  1  0  0  0  0  0  0  0  0  0
    7.7434  -20.9424   63.2217 C   0  0  2  0  0  0  0  0  0  0  0  0
    7.1444  -23.3406   63.8839 C   0  0  2  0  0  0  0  0  0  0  0  0
    8.2099  -23.6352   62.7987 C   0  0  2  0  0  0  0  0  0  0  0  0
    5.7667  -23.8710   63.4116 C   0  0  1  0  0  0  0  0  0  0  0  0
    8.2248  -27.7984   61.6409 C   0  0  0  0  0  0  0  0  0  0  0  0
    8.6183  -28.4583   60.3734 C   0  0  0  0  0  0  0  0  0  0  0  0
    9.8018  -29.2351   60.3108 C   0  0  0  0  0  0  0  0  0  0  0  0
   10.1895  -29.8587   59.1146 C   0  0  0  0  0  0  0  0  0  0  0  0
    9.3780  -29.6800   57.9995 C   0  0  0  0  0  0  0  0  0  0  0  0
    8.5471  -29.7329   56.0442 C   0  0  0  0  0  0  0  0  0  0  0  0
    7.7219  -28.9495   56.8462 C   0  0  0  0  0  0  0  0  0  0  0  0
    7.8470  -28.3110   59.2003 C   0  0  0  0  0  0  0  0  0  0  0  0
    8.3536  -30.0435   54.6062 C   0  0  0  0  0  0  0  0  0  0  0  0
    9.2562  -30.8683   53.9058 C   0  0  0  0  0  0  0  0  0  0  0  0
    9.0547  -31.1480   52.5505 C   0  0  0  0  0  0  0  0  0  0  0  0
    7.9548  -30.6109   51.8788 C   0  0  0  0  0  0  0  0  0  0  0  0
    7.0532  -29.7922   52.5610 C   0  0  0  0  0  0  0  0  0  0  0  0
    7.2491  -29.5087   53.9161 C   0  0  0  0  0  0  0  0  0  0  0  0
    6.9718  -27.1032   61.7583 N   0  0  0  0  0  0  0  0  0  0  0  0
    9.5954  -30.1945   56.7735 N   0  0  0  0  0  0  0  0  0  0  0  0
    8.2663  -28.9341   58.0703 N   0  0  0  0  0  0  0  0  0  0  0  0
    5.7989  -21.4503   64.5273 O   0  0  0  0  0  0  0  0  0  0  0  0
    8.9969  -27.8638   62.6367 O   0  0  0  0  0  0  0  0  0  0  0  0
    9.0238  -25.3030   61.6783 H   0  0  0  0  0  0  0  0  0  0  0  0
    8.6097  -25.6893   63.3858 H   0  0  0  0  0  0  0  0  0  0  0  0
    6.6331  -25.1361   61.0734 H   0  0  0  0  0  0  0  0  0  0  0  0
    6.0606  -25.9422   64.0121 H   0  0  0  0  0  0  0  0  0  0  0  0
    4.8379  -25.6990   62.7190 H   0  0  0  0  0  0  0  0  0  0  0  0
    8.5549  -20.6936   65.5828 H   0  0  0  0  0  0  0  0  0  0  0  0
    8.6151  -22.4619   65.8326 H   0  0  0  0  0  0  0  0  0  0  0  0
    7.2527  -21.5307   66.5184 H   0  0  0  0  0  0  0  0  0  0  0  0
    8.7801  -20.6399   63.4823 H   0  0  0  0  0  0  0  0  0  0  0  0
    7.1316  -20.0320   63.0544 H   0  0  0  0  0  0  0  0  0  0  0  0
    7.7805  -21.4931   62.2573 H   0  0  0  0  0  0  0  0  0  0  0  0
    7.4328  -23.9349   64.7816 H   0  0  0  0  0  0  0  0  0  0  0  0
    7.9764  -23.0861   61.8620 H   0  0  0  0  0  0  0  0  0  0  0  0
    9.2143  -23.3112   63.1461 H   0  0  0  0  0  0  0  0  0  0  0  0
    5.4288  -23.3283   62.5036 H   0  0  0  0  0  0  0  0  0  0  0  0
    5.0027  -23.7344   64.2035 H   0  0  0  0  0  0  0  0  0  0  0  0
   10.4202  -29.3659   61.1900 H   0  0  0  0  0  0  0  0  0  0  0  0
   11.0904  -30.4567   59.0629 H   0  0  0  0  0  0  0  0  0  0  0  0
    6.8102  -28.4363   56.5708 H   0  0  0  0  0  0  0  0  0  0  0  0
    6.9541  -27.6998   59.1788 H   0  0  0  0  0  0  0  0  0  0  0  0
   10.1175  -31.2995   54.3958 H   0  0  0  0  0  0  0  0  0  0  0  0
    9.7532  -31.7825   52.0202 H   0  0  0  0  0  0  0  0  0  0  0  0
    7.8015  -30.8291   50.8298 H   0  0  0  0  0  0  0  0  0  0  0  0
    6.2007  -29.3761   52.0396 H   0  0  0  0  0  0  0  0  0  0  0  0
    6.5355  -28.8710   54.4226 H   0  0  0  0  0  0  0  0  0  0  0  0
    6.0855  -27.6560   61.7340 H   0  0  0  0  0  0  0  0  0  0  0  0
    5.7841  -20.6065   65.0516 H   0  0  0  0  0  0  0  0  0  0  0  0
  1  2  1  0
  2  3  1  0
  4  5  1  0
  5  6  1  0
  7  5  1  0
  1  8  1  0
  7  8  1  0
  3  9  1  0
  7  9  1  0
 10 11  1  0
 11 12  1  0
 12 13  2  0
 13 14  1  0
 15 16  2  0
 11 17  2  0
 15 18  1  0
 18 19  2  0
 19 20  1  0
 20 21  2  0
 21 22  1  0
 22 23  2  0
 18 23  1  0
 10 24  1  0
  2 24  1  0
 15 25  1  0
 14 25  2  0
 16 26  1  0
 14 26  1  0
 17 26  1  0
  5 27  1  1
 10 28  2  0
  1 29  1  6
  1 30  1  0
  2 31  1  6
  3 32  1  1
  3 33  1  0
  4 34  1  6
  4 35  1  0
  4 36  1  0
  6 37  1  1
  6 38  1  0
  6 39  1  0
  7 40  1  1
  8 41  1  6
  8 42  1  0
  9 43  1  6
  9 44  1  0
 12 45  1  0
 13 46  1  0
 16 47  1  0
 17 48  1  0
 19 49  1  0
 20 50  1  0
 21 51  1  0
 22 52  1  0
 23 53  1  0
 24 54  1  0
 27 55  1  0
M  END
