8FO5_Y4U_A_301
     RDKit          3D

 17 18  0  0  0  0  0  0  0  0999 V2000
   28.6713  -16.8164   12.7981 O   0  0  0  0  0  0  0  0  0  0  0  0
   31.0258  -20.7273   15.9050 O   0  0  0  0  0  0  0  0  0  0  0  0
   34.5310  -20.8187   14.3195 C   0  0  0  0  0  0  0  0  0  0  0  0
   35.2062  -21.4019   13.2635 C   0  0  0  0  0  0  0  0  0  0  0  0
   34.5283  -22.1574   12.3345 C   0  0  0  0  0  0  0  0  0  0  0  0
   33.1715  -22.3401   12.4543 C   0  0  0  0  0  0  0  0  0  0  0  0
   32.4708  -21.7536   13.4909 C   0  0  0  0  0  0  0  0  0  0  0  0
   32.7623  -17.5488   14.7665 C   0  0  0  0  0  0  0  0  0  0  0  0
   32.1685  -16.6065   13.9855 C   0  0  0  0  0  0  0  0  0  0  0  0
   30.8859  -17.1211   13.5812 C   0  0  0  0  0  0  0  0  0  0  0  0
   29.8745  -16.4572   12.7513 C   0  0  0  0  0  0  0  0  0  0  0  0
   30.2759  -15.2640   11.9482 C   0  0  0  0  0  0  0  0  0  0  0  0
   30.7614  -18.3587   14.1713 C   0  0  0  0  0  0  0  0  0  0  0  0
   32.2726  -20.0956   15.6373 S   0  0  2  0  0  0  0  0  0  0  0  0
   33.1819  -19.7804   16.6990 O   0  0  0  0  0  0  0  0  0  0  0  0
   31.9069  -18.6326   14.8821 N   0  0  0  0  0  0  0  0  0  0  0  0
   33.1583  -20.9861   14.4134 C   0  0  0  0  0  0  0  0  0  0  0  0
  3  4  2  0
  4  5  1  0
  5  6  2  0
  6  7  1  0
  8  9  2  0
  9 10  1  0
  1 11  2  0
 10 11  1  0
 11 12  1  0
 10 13  2  0
  2 14  2  0
 14 15  2  0
 14 16  1  6
 13 16  1  0
  8 16  1  0
  7 17  2  0
 14 17  1  0
  3 17  1  0
M  END
