6TW7_NZB_AAA_1003
     RDKit          3D

 29 32  0  0  0  0  0  0  0  0999 V2000
   -3.8972   47.0887   56.2558 C   0  0  0  0  0  0  0  0  0  0  0  0
   -4.4296   46.9056   57.6479 C   0  0  0  0  0  0  0  0  0  0  0  0
   -2.5504   47.9500   58.8455 C   0  0  0  0  0  0  0  0  0  0  0  0
   -4.4078   47.8040   55.2469 N   0  0  0  0  0  0  0  0  0  0  0  0
   -0.6375   45.5346   54.2234 C   0  0  0  0  0  0  0  0  0  0  0  0
   -1.5549   46.3773   53.5647 C   0  0  0  0  0  0  0  0  0  0  0  0
   -2.6388   46.8665   54.3500 C   0  0  0  0  0  0  0  0  0  0  0  0
   -0.7618   45.1232   55.5602 C   0  0  0  0  0  0  0  0  0  0  0  0
    1.5796   42.2872   53.4304 C   0  0  0  0  0  0  0  0  0  0  0  0
    0.9114   42.2906   52.0742 C   0  0  0  0  0  0  0  0  0  0  0  0
   -0.2556   41.3576   51.9654 C   0  0  0  0  0  0  0  0  0  0  0  0
    1.1175   43.3783   55.5331 C   0  0  0  0  0  0  0  0  0  0  0  0
    2.0751   42.6094   56.2205 C   0  0  0  0  0  0  0  0  0  0  0  0
   -1.5476   41.8787   52.1462 C   0  0  0  0  0  0  0  0  0  0  0  0
    0.2575   44.2630   56.2659 C   0  0  0  0  0  0  0  0  0  0  0  0
   -2.7107   46.4391   55.7284 C   0  0  0  0  0  0  0  0  0  0  0  0
   -1.8063   45.5565   56.2924 C   0  0  0  0  0  0  0  0  0  0  0  0
    2.1555   42.8452   57.5759 C   0  0  0  0  0  0  0  0  0  0  0  0
    1.3792   43.7350   58.3028 C   0  0  0  0  0  0  0  0  0  0  0  0
    0.4184   44.4773   57.6238 C   0  0  0  0  0  0  0  0  0  0  0  0
   -3.6560   47.7322   54.0939 N   0  0  0  0  0  0  0  0  0  0  0  0
    3.0317   42.1506   58.3455 F   0  0  0  0  0  0  0  0  0  0  0  0
   -4.0008   47.8850   58.6833 N   0  0  0  0  0  0  0  0  0  0  0  0
   -4.7033   49.1792   58.4606 C   0  0  0  0  0  0  0  0  0  0  0  0
    0.9011   43.2496   54.2281 O   0  0  0  0  0  0  0  0  0  0  0  0
   -0.0576   39.9966   51.7204 C   0  0  0  0  0  0  0  0  0  0  0  0
   -1.0906   39.1101   51.6194 N   0  0  0  0  0  0  0  0  0  0  0  0
   -2.3468   39.5876   51.7973 C   0  0  0  0  0  0  0  0  0  0  0  0
   -2.5705   40.9342   52.0252 C   0  0  0  0  0  0  0  0  0  0  0  0
  1  2  1  0
  1  4  1  0
  5  6  2  0
  6  7  1  0
  5  8  1  0
  9 10  1  0
 10 11  1  0
 12 13  2  0
 11 14  2  0
  8 15  1  0
 12 15  1  0
  7 16  1  0
  1 16  2  0
 16 17  1  0
  8 17  2  0
 13 18  1  0
 18 19  2  0
 19 20  1  0
 15 20  2  0
  7 21  2  0
  4 21  1  0
 18 22  1  0
  3 23  1  0
  2 23  1  0
 23 24  1  0
 12 25  1  0
  9 25  1  0
 11 26  1  0
 26 27  2  0
 27 28  1  0
 14 29  1  0
 28 29  2  0
M  END
