7TS6_KMI_B_803
     RDKit          3D

 17 18  0  0  0  0  0  0  0  0999 V2000
    2.7990  -26.5704  -44.4656 C   0  0  0  0  0  0  0  0  0  0  0  0
    1.6959  -28.2669  -43.1592 C   0  0  0  0  0  0  0  0  0  0  0  0
    1.8201  -26.9324  -43.5499 C   0  0  0  0  0  0  0  0  0  0  0  0
    3.6398  -27.5549  -44.9793 C   0  0  0  0  0  0  0  0  0  0  0  0
   -0.6427  -28.1952  -40.2991 C   0  0  0  0  0  0  0  0  0  0  0  0
   -1.6266  -29.1202  -40.6774 C   0  0  0  0  0  0  0  0  0  0  0  0
   -1.4701  -29.7814  -41.8846 C   0  0  0  0  0  0  0  0  0  0  0  0
   -0.3689  -29.4892  -42.6718 C   0  0  0  0  0  0  0  0  0  0  0  0
    0.5825  -28.5791  -42.2375 C   0  0  0  0  0  0  0  0  0  0  0  0
   -2.4610  -30.7983  -42.3705 C   0  0  0  0  0  0  0  0  0  0  0  0
    3.5003  -28.8897  -44.5998 C   0  0  0  0  0  0  0  0  0  0  0  0
    2.5207  -29.2550  -43.6815 C   0  0  0  0  0  0  0  0  0  0  0  0
    4.4283  -29.9407  -45.1629 C   0  0  0  0  0  0  0  0  0  0  0  0
    3.6557  -30.9805  -43.1285 C   0  0  0  0  0  0  0  0  0  0  0  0
    0.4176  -27.9281  -41.0889 N   0  0  0  0  0  0  0  0  0  0  0  0
   -0.7283  -27.5158  -39.1351 N   0  0  0  0  0  0  0  0  0  0  0  0
    4.2471  -31.2200  -44.4563 N   0  0  0  0  0  0  0  0  0  0  0  0
  2  3  1  0
  1  3  2  0
  1  4  1  0
  5  6  2  0
  6  7  1  0
  7  8  2  0
  8  9  1  0
  2  9  1  0
  7 10  1  0
  4 11  2  0
  2 12  2  0
 11 12  1  0
 11 13  1  0
  9 15  2  0
  5 15  1  0
  5 16  1  0
 13 17  1  0
 14 17  1  0
M  END
