7R59_I5F_A_602
     RDKit          3D

 13 15  0  0  0  0  0  0  0  0999 V2000
    4.3543    4.6404    9.8950 C   0  0  0  0  0  0  0  0  0  0  0  0
    3.9859    3.2858    9.8888 C   0  0  0  0  0  0  0  0  0  0  0  0
    2.6956    2.9023   10.2355 C   0  0  0  0  0  0  0  0  0  0  0  0
    6.2858    3.5700    9.2324 C   0  0  0  0  0  0  0  0  0  0  0  0
    6.6370    5.7073    9.2388 C   0  0  0  0  0  0  0  0  0  0  0  0
    7.5294    3.7549    8.8763 N   0  0  0  0  0  0  0  0  0  0  0  0
    7.7400    5.1331    8.8557 N   0  0  0  0  0  0  0  0  0  0  0  0
    3.4339    5.6283   10.2158 C   0  0  0  0  0  0  0  0  0  0  0  0
    5.7008    4.7697    9.5182 N   0  0  0  0  0  0  0  0  0  0  0  0
    0.5145    3.5140   10.8940 O   0  0  0  0  0  0  0  0  0  0  0  0
    1.7762    3.8859   10.5420 C   0  0  0  0  0  0  0  0  0  0  0  0
    2.1346    5.2442   10.5438 C   0  0  0  0  0  0  0  0  0  0  0  0
    5.2843    2.1784    9.4805 S   0  0  0  0  0  0  0  0  0  0  0  0
  1  2  1  0
  2  3  2  0
  4  6  2  0
  5  7  2  0
  6  7  1  0
  1  8  2  0
  5  9  1  0
  4  9  1  0
  1  9  1  0
  3 11  1  0
 10 11  1  0
  8 12  1  0
 11 12  2  0
  4 13  1  0
  2 13  1  0
M  END
