
     RDKit          3D

 29 33  0  0  0  0  0  0  0  0999 V2000
 -126.0778 -172.1689  112.1596 C   0  0  1  0  0  0  0  0  0  0  0  0
 -125.6657 -169.8896  113.0516 C   0  0  0  0  0  0  0  0  0  0  0  0
 -129.4135 -171.5377  114.6615 C   0  0  0  0  0  0  0  0  0  0  0  0
 -132.3111 -171.9223  112.2676 C   0  0  0  0  0  0  0  0  0  0  0  0
 -133.0117 -172.5508  114.3059 C   0  0  0  0  0  0  0  0  0  0  0  0
 -131.9537 -172.6371  116.2935 C   0  0  0  0  0  0  0  0  0  0  0  0
 -124.9672 -169.7041  117.7857 C   0  0  0  0  0  0  0  0  0  0  0  0
 -127.6696 -170.5769  117.8391 C   0  0  2  0  0  0  0  0  0  0  0  0
 -127.5230 -171.6423  118.9024 C   0  0  0  0  0  0  0  0  0  0  0  0
 -128.7270 -170.7408  118.9109 C   0  0  0  0  0  0  0  0  0  0  0  0
 -127.9587 -170.9413  116.4114 C   0  0  0  0  0  0  0  0  0  0  0  0
 -127.1505 -171.2660  114.2563 C   0  0  0  0  0  0  0  0  0  0  0  0
 -126.6656 -173.5656  112.3310 C   0  0  0  0  0  0  0  0  0  0  0  0
 -126.6604 -171.4226  110.9441 C   0  0  0  0  0  0  0  0  0  0  0  0
 -125.0534 -169.7688  111.6473 C   0  0  0  0  0  0  0  0  0  0  0  0
 -130.7338 -171.8281  114.0978 C   0  0  0  0  0  0  0  0  0  0  0  0
 -131.0358 -171.6380  112.7373 C   0  0  0  0  0  0  0  0  0  0  0  0
 -131.7823 -172.3126  114.9139 C   0  0  0  0  0  0  0  0  0  0  0  0
 -133.2522 -173.0641  116.4752 C   0  0  0  0  0  0  0  0  0  0  0  0
 -129.2402 -171.2306  115.9919 C   0  0  0  0  0  0  0  0  0  0  0  0
 -126.6664 -168.6597  119.5615 N   0  0  0  0  0  0  0  0  0  0  0  0
 -126.9272 -170.9624  115.5384 N   0  0  0  0  0  0  0  0  0  0  0  0
 -126.1043 -171.2772  113.3415 N   0  0  0  0  0  0  0  0  0  0  0  0
 -128.3767 -171.5610  113.8028 N   0  0  0  0  0  0  0  0  0  0  0  0
 -133.3394 -172.3772  113.0135 N   0  0  0  0  0  0  0  0  0  0  0  0
 -133.8807 -173.0075  115.2586 N   0  0  0  0  0  0  0  0  0  0  0  0
 -125.9463 -170.2141  110.6127 O   0  0  0  0  0  0  0  0  0  0  0  0
 -126.9483 -168.1994  116.9845 O   0  0  0  0  0  0  0  0  0  0  0  0
 -126.6092 -169.0878  118.0802 S   0  0  1  0  0  6  0  0  0  0  0  0
  8  9  1  0
  8 10  1  0
  9 10  1  0
  8 11  1  6
  1 13  1  1
  1 14  1  0
  2 15  1  0
  3 16  1  0
 16 17  4  0
  4 17  4  0
  6 18  4  0
  5 18  4  0
 16 18  4  0
  6 19  4  0
  3 20  4  0
 11 20  4  0
 12 22  4  0
 11 22  4  0
  1 23  1  0
  2 23  1  0
 12 23  1  0
 12 24  4  0
  3 24  4  0
  5 25  4  0
  4 25  4  0
 19 26  4  0
  5 26  4  0
 14 27  1  0
 15 27  1  0
 28 29  2  0
 29  7  1  6
  8 29  1  0
 21 29  2  0
M  END
