8EXL_799_A_1101
     RDKit          3D

 34 38  0  0  0  0  0  0  0  0999 V2000
  -21.8459   16.1718   35.1331 C   0  0  0  0  0  0  0  0  0  0  0  0
  -21.4568   17.4534   34.5138 C   0  0  2  0  0  0  0  0  0  0  0  0
  -21.1439   18.4216   35.6377 C   0  0  0  0  0  0  0  0  0  0  0  0
  -22.6075   17.9767   33.7010 C   0  0  0  0  0  0  0  0  0  0  0  0
  -19.9794   16.2534   32.8457 C   0  0  0  0  0  0  0  0  0  0  0  0
  -18.0614   15.6947   31.2627 C   0  0  0  0  0  0  0  0  0  0  0  0
  -14.1633   15.8115   28.3355 C   0  0  0  0  0  0  0  0  0  0  0  0
  -13.6682   14.3960   28.1993 C   0  0  0  0  0  0  0  0  0  0  0  0
  -14.5212   12.3564   27.1536 C   0  0  0  0  0  0  0  0  0  0  0  0
  -16.6031   14.1986   29.4419 C   0  0  0  0  0  0  0  0  0  0  0  0
  -17.8070   13.7077   29.9055 C   0  0  0  0  0  0  0  0  0  0  0  0
  -17.8044    9.3458   27.3398 C   0  0  1  0  0  0  0  0  0  0  0  0
  -19.1659    9.2288   26.6514 C   0  0  0  0  0  0  0  0  0  0  0  0
  -17.7137    8.1220   28.2374 C   0  0  0  0  0  0  0  0  0  0  0  0
  -22.9878   15.4872   34.6460 N   0  0  0  0  0  0  0  0  0  0  0  0
  -21.1974   15.6529   36.0897 O   0  0  0  0  0  0  0  0  0  0  0  0
  -20.2942   17.2854   33.6564 N   0  0  0  0  0  0  0  0  0  0  0  0
  -18.7640   16.5427   32.2199 C   0  0  0  0  0  0  0  0  0  0  0  0
  -18.3785   17.7764   32.6909 C   0  0  0  0  0  0  0  0  0  0  0  0
  -19.3195   18.1682   33.5360 N   0  0  0  0  0  0  0  0  0  0  0  0
  -16.8416   16.1977   30.7961 C   0  0  0  0  0  0  0  0  0  0  0  0
  -16.1472   15.4412   29.9025 C   0  0  0  0  0  0  0  0  0  0  0  0
  -14.9500   16.0086   29.4885 O   0  0  0  0  0  0  0  0  0  0  0  0
  -14.6905   13.4187   27.9861 N   0  0  0  0  0  0  0  0  0  0  0  0
  -15.6579   11.5905   27.1463 C   0  0  0  0  0  0  0  0  0  0  0  0
  -16.5318   12.1831   27.9779 N   0  0  0  0  0  0  0  0  0  0  0  0
  -15.9539   13.2777   28.4815 C   0  0  0  0  0  0  0  0  0  0  0  0
  -18.5062   14.4910   30.8182 C   0  0  0  0  0  0  0  0  0  0  0  0
  -15.7973   10.3762   26.3528 C   0  0  0  0  0  0  0  0  0  0  0  0
  -14.9310   10.0675   25.3590 N   0  0  0  0  0  0  0  0  0  0  0  0
  -15.3148    8.9028   24.8182 C   0  0  0  0  0  0  0  0  0  0  0  0
  -14.6096    8.2394   23.6983 C   0  0  0  0  0  0  0  0  0  0  0  0
  -16.4078    8.5142   25.4855 N   0  0  0  0  0  0  0  0  0  0  0  0
  -16.7117    9.3983   26.4189 N   0  0  0  0  0  0  0  0  0  0  0  0
  1  2  1  0
  3  2  1  6
  4  2  1  1
  7  8  1  0
 10 11  2  0
 13 12  1  6
 14 12  1  1
  1 15  1  0
  1 16  2  0
  5 17  1  0
  2 17  1  6
  6 18  1  0
  5 18  2  0
 18 19  1  0
 19 20  2  0
 17 20  1  0
  6 21  1  0
 10 22  1  0
 21 22  2  0
 22 23  1  0
  7 23  1  6
  9 24  1  0
  8 24  1  1
  9 25  2  0
 25 26  1  0
 26 27  2  0
 24 27  1  0
 10 27  1  0
 11 28  1  0
  6 28  2  0
 25 29  1  0
 29 30  2  0
 30 31  1  0
 32 31  1  1
 31 33  2  0
 33 34  1  0
 12 34  1  6
 29 34  1  0
M  END
$$$$
