1R9O_FLP_A_501
     RDKit          3D

 18 19  0  0  0  0  0  0  0  0999 V2000
    6.6031   29.0130   -6.8504 C   0  0  0  0  0  0  0  0  0  0  0  0
    6.7866   27.9081   -5.9238 C   0  0  0  0  0  0  0  0  0  0  0  0
    5.9747   27.7897   -4.7009 C   0  0  0  0  0  0  0  0  0  0  0  0
    4.9956   28.8823   -4.4464 C   0  0  0  0  0  0  0  0  0  0  0  0
    4.8250   29.9654   -5.3606 C   0  0  0  0  0  0  0  0  0  0  0  0
    5.6448   30.0408   -6.5415 C   0  0  0  0  0  0  0  0  0  0  0  0
    6.1056   26.6819   -3.7952 C   0  0  0  0  0  0  0  0  0  0  0  0
    6.4950   25.3356   -4.3176 C   0  0  0  0  0  0  0  0  0  0  0  0
    6.6172   24.2046   -3.4437 C   0  0  0  0  0  0  0  0  0  0  0  0
    6.4992   24.3588   -2.0010 C   0  0  0  0  0  0  0  0  0  0  0  0
    6.1271   25.6411   -1.4723 C   0  0  0  0  0  0  0  0  0  0  0  0
    6.0163   26.8022   -2.3128 C   0  0  0  0  0  0  0  0  0  0  0  0
    6.6354   23.1508   -1.0000 C   0  0  2  0  0  0  0  0  0  0  0  0
    5.2522   22.4936   -0.6492 C   0  0  0  0  0  0  0  0  0  0  0  0
    7.3901   23.6227    0.3178 C   0  0  0  0  0  0  0  0  0  0  0  0
    8.5703   23.3149    0.5088 O   0  0  0  0  0  0  0  0  0  0  0  0
    6.7640   24.3020    1.1614 O   0  0  0  0  0  0  0  0  0  0  0  0
    5.6766   27.9826   -1.6623 F   0  0  0  0  0  0  0  0  0  0  0  0
  1  2  2  0
  2  3  1  0
  3  4  2  0
  4  5  1  0
  1  6  1  0
  5  6  2  0
  3  7  1  0
  7  8  2  0
  8  9  1  0
  9 10  2  0
 10 11  1  0
  7 12  1  0
 11 12  2  0
 10 13  1  0
 13 14  1  1
 13 15  1  0
 15 16  2  0
 15 17  1  0
 12 18  1  0
M  END
