7OPG_06N_A_501
     RDKit          3D

 19 21  0  0  0  0  0  0  0  0999 V2000
   45.1803   27.1030   66.1578 C   0  0  0  0  0  0  0  0  0  0  0  0
   44.9258   28.4540   66.2666 C   0  0  0  0  0  0  0  0  0  0  0  0
   46.4670   26.5446   65.7781 C   0  0  0  0  0  0  0  0  0  0  0  0
   48.7169   27.0070   65.1230 C   0  0  0  0  0  0  0  0  0  0  0  0
   47.4755   27.4631   65.4889 C   0  0  0  0  0  0  0  0  0  0  0  0
   48.9852   25.6587   65.0361 C   0  0  0  0  0  0  0  0  0  0  0  0
   47.9796   24.7631   65.3246 C   0  0  0  0  0  0  0  0  0  0  0  0
   46.7017   25.1862   65.7009 C   0  0  0  0  0  0  0  0  0  0  0  0
   43.6591   28.5998   66.6295 N   0  0  0  0  0  0  0  0  0  0  0  0
   43.1524   27.3913   66.7403 C   0  0  0  0  0  0  0  0  0  0  0  0
   44.0267   26.4132   66.4660 N   0  0  0  0  0  0  0  0  0  0  0  0
   41.6329   26.4655   67.1457 S   0  0  0  0  0  0  0  0  0  0  0  0
   42.4913   24.7941   66.8571 C   0  0  0  0  0  0  0  0  0  0  0  0
   43.6254   25.2098   66.5471 N   0  0  0  0  0  0  0  0  0  0  0  0
   41.7686   23.6002   67.0296 N   0  0  0  0  0  0  0  0  0  0  0  0
   42.5370   22.3535   67.0281 C   0  0  0  0  0  0  0  0  0  0  0  0
   42.7337   21.9642   68.4745 C   0  0  0  0  0  0  0  0  0  0  0  0
   43.4266   20.6249   68.5893 C   0  0  0  0  0  0  0  0  0  0  0  0
   50.2486   25.2194   64.6639 O   0  0  0  0  0  0  0  0  0  0  0  0
  1  2  2  0
  1  3  1  0
  4  5  2  0
  3  5  1  0
  4  6  1  0
  6  7  2  0
  7  8  1  0
  3  8  2  0
  2  9  1  0
  9 10  2  0
  1 11  1  0
 10 11  1  0
 10 12  1  0
 12 13  1  0
 11 14  1  0
 13 14  2  0
 13 15  1  0
 15 16  1  0
 16 17  1  0
 17 18  1  0
  6 19  1  0
M  END
$$$$
