7KLX_WOV_A_401
     RDKit          3D

 30 31  0  0  0  0  0  0  0  0999 V2000
   46.6453   17.8674   10.1289 C   0  0  0  0  0  0  0  0  0  0  0  0
   45.9633   18.2232    8.9798 C   0  0  0  0  0  0  0  0  0  0  0  0
   46.9185   18.4129    7.9988 C   0  0  0  0  0  0  0  0  0  0  0  0
   48.1450   18.1816    8.5941 C   0  0  0  0  0  0  0  0  0  0  0  0
   49.4692   18.2632    7.8993 C   0  0  1  0  0  0  0  0  0  0  0  0
   48.5220   15.4091    8.8709 O   0  0  0  0  0  0  0  0  0  0  0  0
   49.0083   17.5626   10.8458 C   0  0  0  0  0  0  0  0  0  0  0  0
   49.8585   16.4347   10.7221 C   0  0  0  0  0  0  0  0  0  0  0  0
   50.9006   16.2658   11.6548 C   0  0  0  0  0  0  0  0  0  0  0  0
   50.5428   14.5251    9.4735 O   0  0  0  0  0  0  0  0  0  0  0  0
   51.0844   17.1810   12.6992 C   0  0  0  0  0  0  0  0  0  0  0  0
   50.2298   18.2767   12.8206 C   0  0  0  0  0  0  0  0  0  0  0  0
   49.2000   18.4672   11.8999 C   0  0  0  0  0  0  0  0  0  0  0  0
   49.6694   15.4154    9.6588 C   0  0  0  0  0  0  0  0  0  0  0  0
   52.1126   17.0072   13.6232 O   0  0  0  0  0  0  0  0  0  0  0  0
   47.9734   17.8346    9.8883 N   0  0  0  0  0  0  0  0  0  0  0  0
   46.0134   17.5986   11.4593 C   0  0  1  0  0  0  0  0  0  0  0  0
   44.8931   18.3362    8.8674 H   0  0  0  0  0  0  0  0  0  0  0  0
   46.7384   18.6977    6.9705 H   0  0  0  0  0  0  0  0  0  0  0  0
   50.0795   17.3627    8.1222 H   0  0  0  0  0  0  0  0  0  0  0  0
   49.3179   18.3253    6.8015 H   0  0  0  0  0  0  0  0  0  0  0  0
   50.0149   19.1648    8.2459 H   0  0  0  0  0  0  0  0  0  0  0  0
   48.5816   15.3189    7.8639 H   0  0  0  0  0  0  0  0  0  0  0  0
   51.5647   15.4130   11.5847 H   0  0  0  0  0  0  0  0  0  0  0  0
   50.3683   18.9863   13.6264 H   0  0  0  0  0  0  0  0  0  0  0  0
   48.5543   19.3312   11.9957 H   0  0  0  0  0  0  0  0  0  0  0  0
   52.7572   16.2279   13.5587 H   0  0  0  0  0  0  0  0  0  0  0  0
   46.7641   17.7324   12.2660 H   0  0  0  0  0  0  0  0  0  0  0  0
   45.1731   18.3054   11.6195 H   0  0  0  0  0  0  0  0  0  0  0  0
   45.6263   16.5588   11.5030 H   0  0  0  0  0  0  0  0  0  0  0  0
  1  2  2  0
  2  3  1  0
  3  4  2  0
  4  5  1  0
  7  8  2  0
  8  9  1  0
  9 11  2  0
 11 12  1  0
  7 13  1  0
 12 13  2  0
 10 14  2  0
  6 14  1  0
  8 14  1  0
 11 15  1  0
  4 16  1  0
  7 16  1  0
  1 16  1  0
  1 17  1  0
  2 18  1  0
  3 19  1  0
  5 20  1  6
  5 21  1  0
  5 22  1  0
  6 23  1  0
  9 24  1  0
 12 25  1  0
 13 26  1  0
 15 27  1  0
 17 28  1  1
 17 29  1  0
 17 30  1  0
M  END
