
     RDKit          3D

 22 25  0  0  0  0  0  0  0  0999 V2000
   13.7565   27.3806    3.0774 O   0  0  0  0  0  0  0  0  0  0  0  0
   13.1385   26.7126    3.9020 C   0  0  0  0  0  0  0  0  0  0  0  0
   11.6337   26.6687    3.9471 C   0  0  0  0  0  0  0  0  0  0  0  0
   13.8786   25.8307    4.8333 C   0  0  0  0  0  0  0  0  0  0  0  0
   13.2403   25.1512    5.8018 C   0  0  0  0  0  0  0  0  0  0  0  0
   13.9868   24.1304    6.6244 C   0  0  0  0  0  0  0  0  0  0  0  0
   11.7558   25.3128    6.1070 C   0  0  2  0  0  0  0  0  0  0  0  0
   11.1543   26.5368    5.3831 C   0  0  0  0  0  0  0  0  0  0  0  0
   11.5043   25.4104    7.6432 C   0  0  2  0  0  0  0  0  0  0  0  0
   12.2100   24.2489    8.4028 C   0  0  1  0  0  0  0  0  0  0  0  0
   13.7171   24.2799    8.1173 C   0  0  0  0  0  0  0  0  0  0  0  0
    9.9966   25.4976    7.9910 C   0  0  0  0  0  0  0  0  0  0  0  0
    9.7142   25.4947    9.5046 C   0  0  0  0  0  0  0  0  0  0  0  0
   10.4001   24.3149   10.2167 C   0  0  2  0  0  0  0  0  0  0  0  0
   11.9108   24.3759    9.8998 C   0  0  1  0  0  0  0  0  0  0  0  0
    9.7170   22.9971    9.7434 C   0  0  0  0  0  0  0  0  0  0  0  0
   10.4361   24.3457   11.7745 C   0  0  1  0  0  0  0  0  0  0  0  0
    9.2361   23.8328   12.3360 O   0  0  0  0  0  0  0  0  0  0  0  0
   11.6256   23.4083   12.1126 C   0  0  0  0  0  0  0  0  0  0  0  0
   12.5186   23.3522   10.8560 C   0  0  0  0  0  0  0  0  0  0  0  0
   10.6684   25.6896   12.3477 C   0  0  0  0  0  0  0  0  0  0  0  0
   10.8522   26.7753   12.8286 C   0  0  0  0  0  0  0  0  0  0  0  0
  1  2  2  0
  2  3  1  0
  2  4  1  0
  4  5  2  0
  5  6  1  0
  5  7  1  0
  3  8  1  0
  7  8  1  6
  7  9  1  0
  9 10  1  0
  6 11  1  0
 10 11  1  1
  9 12  1  6
 12 13  1  0
 13 14  1  0
 10 15  1  0
 14 15  1  0
 14 16  1  1
 14 17  1  0
 17 18  1  1
 17 19  1  0
 15 20  1  1
 19 20  1  0
 17 21  1  0
 21 22  3  0
M  END
