7REE_4LY_A_1201
     RDKit          3D

 42 47  0  0  0  0  0  0  0  0999 V2000
   10.5441  -15.2879    5.7479 C   0  0  0  0  0  0  0  0  0  0  0  0
   10.7864  -19.0313    5.9628 C   0  0  0  0  0  0  0  0  0  0  0  0
   12.1055  -19.4615    5.9308 C   0  0  0  0  0  0  0  0  0  0  0  0
    5.9534  -17.4745    5.9279 C   0  0  0  0  0  0  0  0  0  0  0  0
    4.5908  -17.3172    5.9004 C   0  0  0  0  0  0  0  0  0  0  0  0
    4.1141  -13.5760    5.5081 C   0  0  0  0  0  0  0  0  0  0  0  0
    3.4857  -11.3577    6.4774 C   0  0  0  0  0  0  0  0  0  0  0  0
   11.8763  -12.6282    4.2238 C   0  0  0  0  0  0  0  0  0  0  0  0
   11.7424  -13.0640    5.6767 C   0  0  2  0  0  0  0  0  0  0  0  0
   10.7867  -12.2684    6.5000 C   0  0  0  0  0  0  0  0  0  0  0  0
   10.7300  -10.8818    6.0394 C   0  0  0  0  0  0  0  0  0  0  0  0
   10.9485  -16.5905    5.9584 C   0  0  0  0  0  0  0  0  0  0  0  0
   10.1597  -17.8168    5.9781 C   0  0  0  0  0  0  0  0  0  0  0  0
    9.9885  -20.1562    5.9818 C   0  0  0  0  0  0  0  0  0  0  0  0
   12.0759  -20.8297    5.9312 C   0  0  0  0  0  0  0  0  0  0  0  0
    8.0284  -18.8883    6.0293 C   0  0  0  0  0  0  0  0  0  0  0  0
    3.9770  -16.0648    5.7630 C   0  0  0  0  0  0  0  0  0  0  0  0
    4.7144  -14.9023    5.6460 C   0  0  0  0  0  0  0  0  0  0  0  0
    3.9728  -12.7644    6.7281 C   0  0  0  0  0  0  0  0  0  0  0  0
    1.4696  -12.3885    5.8093 C   0  0  0  0  0  0  0  0  0  0  0  0
    3.0844  -11.7034    4.2299 C   0  0  0  0  0  0  0  0  0  0  0  0
    3.6996  -13.0629    4.3706 C   0  0  0  0  0  0  0  0  0  0  0  0
    6.0914  -15.0609    5.6738 C   0  0  0  0  0  0  0  0  0  0  0  0
    6.6973  -16.3007    5.8096 C   0  0  0  0  0  0  0  0  0  0  0  0
   12.3144  -16.5559    6.1628 C   0  0  0  0  0  0  0  0  0  0  0  0
   13.2026  -12.5818    5.7176 C   0  0  0  0  0  0  0  0  0  0  0  0
   15.8721  -12.9537    3.0080 C   0  0  0  0  0  0  0  0  0  0  0  0
   15.7424  -14.3633    2.5373 C   0  0  0  0  0  0  0  0  0  0  0  0
    2.6293  -16.0955    5.7523 F   0  0  0  0  0  0  0  0  0  0  0  0
    6.9574  -14.0108    5.5733 F   0  0  0  0  0  0  0  0  0  0  0  0
   13.2704  -12.9076    4.3362 N   0  0  0  0  0  0  0  0  0  0  0  0
   10.6978   -9.7762    5.6834 N   0  0  0  0  0  0  0  0  0  0  0  0
   11.6277  -14.4939    5.8226 N   0  0  0  0  0  0  0  0  0  0  0  0
   10.7853  -21.2491    5.9623 N   0  0  0  0  0  0  0  0  0  0  0  0
    8.6621  -20.0507    6.0138 N   0  0  0  0  0  0  0  0  0  0  0  0
    6.6363  -18.6900    6.0619 N   0  0  0  0  0  0  0  0  0  0  0  0
    2.4254  -11.3798    5.4666 N   0  0  0  0  0  0  0  0  0  0  0  0
    8.8208  -17.7735    6.0104 N   0  0  0  0  0  0  0  0  0  0  0  0
   12.6690  -15.2800    6.0713 N   0  0  0  0  0  0  0  0  0  0  0  0
   13.7162  -11.8446    1.9746 O   0  0  0  0  0  0  0  0  0  0  0  0
   14.6715  -10.7684    3.9106 O   0  0  0  0  0  0  0  0  0  0  0  0
   14.3640  -12.1224    3.3228 S   0  0  2  0  0  0  0  0  0  0  0  0
  2  3  1  0
  4  5  2  0
  8  9  1  0
  9 10  1  1
 10 11  1  0
  1 12  2  0
 12 13  1  0
  2 13  2  0
  2 14  1  0
  3 15  2  0
  5 17  1  0
  6 18  1  0
 17 18  2  0
  6 19  1  0
  7 19  1  0
 21 22  1  0
  6 22  2  0
 18 23  1  0
 23 24  2  0
  4 24  1  0
 12 25  1  0
  9 26  1  0
 27 28  1  0
 17 29  1  0
 23 30  1  0
  8 31  1  0
 26 31  1  0
 11 32  3  0
  9 33  1  0
  1 33  1  0
 15 34  1  0
 14 34  1  0
 16 35  1  0
 14 35  2  0
 16 36  1  0
  4 36  1  0
 21 37  1  0
 20 37  1  0
  7 37  1  0
 13 38  1  0
 16 38  2  0
 25 39  2  0
 33 39  1  0
 41 42  2  0
 40 42  2  0
 42 27  1  6
 31 42  1  0
M  END
$$$$
