1N1M_A3M_A_954
     RDKit          3D

 12 12  0  0  0  0  0  0  0  0999 V2000
   99.7239   69.3296   99.6638 C   0  0  0  0  0  0  0  0  0  0  0  0
  100.8919   68.2712   99.9637 C   0  0  0  0  0  0  0  0  0  0  0  0
  102.1263   68.9335   99.5077 N   0  0  0  0  0  0  0  0  0  0  0  0
  101.6944   69.7900   98.3785 C   0  0  0  0  0  0  0  0  0  0  0  0
  100.5042   70.5552   99.0077 C   0  0  0  0  0  0  0  0  0  0  0  0
  103.2274   68.0060   99.2520 C   0  0  0  0  0  0  0  0  0  0  0  0
  103.8492   67.0845  100.2133 C   0  0  2  0  0  0  0  0  0  0  0  0
  105.0337   67.5656  101.0014 C   0  0  1  0  0  0  0  0  0  0  0  0
  104.7403   68.6306  101.9733 C   0  0  0  0  0  0  0  0  0  0  0  0
  103.7464   67.9753   97.9787 O   0  0  0  0  0  0  0  0  0  0  0  0
  104.2519   65.7993   99.5531 N   0  0  0  0  0  0  0  0  0  0  0  0
  105.6828   66.2998  101.9176 C   0  0  0  0  0  0  0  0  0  0  0  0
  1  2  1  0
  2  3  1  0
  3  4  1  0
  1  5  1  0
  4  5  1  0
  3  6  1  0
  6  7  1  0
  7  8  1  0
  8  9  1  1
  6 10  2  0
  7 11  1  6
  8 12  1  0
M  END
