
     RDKit          3D

 33 36  0  0  0  0  0  0  0  0999 V2000
    0.0542    8.0508  -10.5277 C   0  0  0  0  0  0  0  0  0  0  0  0
   -0.5025    9.3136  -10.2952 C   0  0  0  0  0  0  0  0  0  0  0  0
   -0.1372    9.9917   -9.1183 C   0  0  0  0  0  0  0  0  0  0  0  0
    0.7504    9.4415   -8.1946 C   0  0  0  0  0  0  0  0  0  0  0  0
    1.2971    8.1738   -8.4604 C   0  0  0  0  0  0  0  0  0  0  0  0
    0.8657   10.4090   -7.1593 C   0  0  0  0  0  0  0  0  0  0  0  0
   -1.3523   12.2039   -9.1437 C   0  0  0  0  0  0  0  0  0  0  0  0
   -2.6032   15.6246   -6.9160 C   0  0  0  0  0  0  0  0  0  0  0  0
   -3.0792   14.3586   -6.5777 C   0  0  0  0  0  0  0  0  0  0  0  0
    3.6773   10.0850   -7.1906 F   0  0  0  0  0  0  0  0  0  0  0  0
    3.0530   10.1875   -6.0071 C   0  0  0  0  0  0  0  0  0  0  0  0
    3.8278   10.1227   -4.8505 C   0  0  0  0  0  0  0  0  0  0  0  0
    3.2106   10.2054   -3.5993 C   0  0  0  0  0  0  0  0  0  0  0  0
    3.9843   10.1428   -2.3368 C   0  0  0  0  0  0  0  0  0  0  0  0
    5.2285   10.6345   -2.4649 O   0  0  0  0  0  0  0  0  0  0  0  0
    3.5812    9.7040   -1.2761 O   0  0  0  0  0  0  0  0  0  0  0  0
    1.8191   10.3511   -3.5201 C   0  0  0  0  0  0  0  0  0  0  0  0
    1.0487   10.4151   -4.6861 C   0  0  0  0  0  0  0  0  0  0  0  0
    1.6630   10.3330   -5.9429 C   0  0  0  0  0  0  0  0  0  0  0  0
    2.1589    7.6059   -7.6053 F   0  0  0  0  0  0  0  0  0  0  0  0
    0.9462    7.4850   -9.6214 C   0  0  0  0  0  0  0  0  0  0  0  0
    0.0928   11.4758   -7.4003 N   0  0  0  0  0  0  0  0  0  0  0  0
   -0.4842   11.2314   -8.6069 N   0  0  0  0  0  0  0  0  0  0  0  0
   -1.7993   12.0562  -10.2791 O   0  0  0  0  0  0  0  0  0  0  0  0
   -1.7901   13.3913   -8.3835 C   0  0  0  0  0  0  0  0  0  0  0  0
   -2.6702   13.2381   -7.3036 C   0  0  0  0  0  0  0  0  0  0  0  0
   -3.2435   11.6923   -6.7858 Cl  0  0  0  0  0  0  0  0  0  0  0  0
   -1.7125   15.7752   -7.9796 C   0  0  0  0  0  0  0  0  0  0  0  0
   -1.2951   14.6627   -8.7320 C   0  0  0  0  0  0  0  0  0  0  0  0
   -0.3243   14.8451   -9.8707 C   0  0  0  0  0  0  0  0  0  0  0  0
    0.2082   16.1006   -9.9101 F   0  0  0  0  0  0  0  0  0  0  0  0
   -0.8903   14.6581  -11.0944 F   0  0  0  0  0  0  0  0  0  0  0  0
    0.7371   14.0005   -9.7990 F   0  0  0  0  0  0  0  0  0  0  0  0
  1  2  4  0
  2  3  4  0
  3  4  4  0
  4  5  4  0
  4  6  4  0
  8  9  4  0
 10 11  1  0
 11 12  4  0
 12 13  4  0
 13 14  1  0
 14 15  1  0
 14 16  2  0
 13 17  4  0
 17 18  4  0
  6 19  1  0
 18 19  4  0
 11 19  4  0
  5 20  1  0
  1 21  4  0
  5 21  4  0
  6 22  4  0
  3 23  4  0
  7 23  1  0
 22 23  4  0
  7 24  2  0
  7 25  1  0
 25 26  4  0
  9 26  4  0
 26 27  1  0
  8 28  4  0
 25 29  4  0
 28 29  4  0
 29 30  1  0
 30 31  1  0
 30 32  1  0
 30 33  1  0
M  END
