6W59_SZD_A_602
     RDKit          3D

 45 47  0  0  0  0  0  0  0  0999 V2000
    6.1341  -13.9075   -7.6730 N   0  0  0  0  0  0  0  0  0  0  0  0
    7.0008  -14.7442   -4.8424 C   0  0  0  0  0  0  0  0  0  0  0  0
    5.8009  -14.0796   -5.1604 C   0  0  0  0  0  0  0  0  0  0  0  0
    4.7436  -14.1038   -4.2311 C   0  0  0  0  0  0  0  0  0  0  0  0
    5.6521  -13.3452   -6.4404 C   0  0  0  0  0  0  0  0  0  0  0  0
    5.2796  -14.2861   -8.7659 C   0  0  0  0  0  0  0  0  0  0  0  0
    4.6291  -14.1554  -11.1056 C   0  0  0  0  0  0  0  0  0  0  0  0
    4.2758  -15.2441   -8.5555 C   0  0  0  0  0  0  0  0  0  0  0  0
    3.2652  -16.7293   -5.5470 C   0  0  0  0  0  0  0  0  0  0  0  0
    5.6696  -16.7867   -5.1976 C   0  0  0  0  0  0  0  0  0  0  0  0
    6.8015  -15.5105   -3.3512 C   0  0  1  0  0  0  0  0  0  0  0  0
    4.8787  -14.7910   -3.0205 C   0  0  0  0  0  0  0  0  0  0  0  0
    6.0707  -15.4545   -2.7212 C   0  0  0  0  0  0  0  0  0  0  0  0
    7.1312  -15.4292   -3.6298 C   0  0  0  0  0  0  0  0  0  0  0  0
    3.8513  -14.8137   -2.1361 F   0  0  0  0  0  0  0  0  0  0  0  0
    8.2917  -16.0639   -3.3325 F   0  0  0  0  0  0  0  0  0  0  0  0
    5.0564  -12.2332   -6.4516 O   0  0  0  0  0  0  0  0  0  0  0  0
    5.4613  -13.7563  -10.0563 C   0  0  0  0  0  0  0  0  0  0  0  0
    3.6157  -15.0901  -10.8816 C   0  0  0  0  0  0  0  0  0  0  0  0
    3.4343  -15.6371   -9.6051 C   0  0  0  0  0  0  0  0  0  0  0  0
    2.1533  -16.8103   -9.3146 S   0  0  2  0  0  6  0  0  0  0  0  0
    2.3010  -17.4749   -7.7176 N   0  0  0  0  0  0  0  0  0  0  0  0
    2.2745  -17.9170  -10.3236 O   0  0  0  0  0  0  0  0  0  0  0  0
    0.8024  -16.1654   -9.4538 O   0  0  0  0  0  0  0  0  0  0  0  0
    3.4238  -17.2399   -6.8484 C   0  0  0  0  0  0  0  0  0  0  0  0
    4.3801  -16.5034   -4.7352 C   0  0  0  0  0  0  0  0  0  0  0  0
    5.8312  -17.3062   -6.4956 C   0  0  0  0  0  0  0  0  0  0  0  0
    4.7167  -17.5303   -7.3090 C   0  0  0  0  0  0  0  0  0  0  0  0
    6.7519  -16.5387   -4.3379 O   0  0  0  0  0  0  0  0  0  0  0  0
    6.8823  -14.2701   -3.9585 F   0  0  0  0  0  0  0  0  0  0  0  0
    5.6477  -15.5607   -2.5929 F   0  0  0  0  0  0  0  0  0  0  0  0
    7.8904  -15.7001   -2.5191 F   0  0  0  0  0  0  0  0  0  0  0  0
    7.1449  -14.1663   -7.7325 H   0  0  0  0  0  0  0  0  0  0  0  0
    7.8459  -14.7205   -5.5176 H   0  0  0  0  0  0  0  0  0  0  0  0
    3.8091  -13.6001   -4.4451 H   0  0  0  0  0  0  0  0  0  0  0  0
    4.7740  -13.7437  -12.0962 H   0  0  0  0  0  0  0  0  0  0  0  0
    4.1412  -15.6709   -7.5692 H   0  0  0  0  0  0  0  0  0  0  0  0
    2.2873  -16.5056   -5.1465 H   0  0  0  0  0  0  0  0  0  0  0  0
    6.1740  -15.9848   -1.7832 H   0  0  0  0  0  0  0  0  0  0  0  0
    6.2579  -13.0532  -10.2600 H   0  0  0  0  0  0  0  0  0  0  0  0
    2.9778  -15.3892  -11.7034 H   0  0  0  0  0  0  0  0  0  0  0  0
    1.5539  -18.1379   -7.4119 H   0  0  0  0  0  0  0  0  0  0  0  0
    4.2409  -16.1063   -3.7374 H   0  0  0  0  0  0  0  0  0  0  0  0
    6.8104  -17.5394   -6.8886 H   0  0  0  0  0  0  0  0  0  0  0  0
    4.8629  -17.9275   -8.3057 H   0  0  0  0  0  0  0  0  0  0  0  0
  2  3  4  0
  3  4  4  0
  3  5  1  0
  1  5  1  0
  1  6  1  0
  6  8  4  0
  4 12  4  0
 12 13  4  0
 13 14  4  0
  2 14  4  0
 12 15  1  0
 14 16  1  0
  5 17  2  0
  6 18  4  0
  7 18  4  0
  7 19  4  0
  8 20  4  0
 19 20  4  0
 20 21  1  0
 21 22  1  6
 21 23  2  0
 21 24  2  0
  9 25  4  0
 22 25  1  0
 10 26  4  0
  9 26  4  0
 10 27  4  0
 27 28  4  0
 25 28  4  0
 11 29  1  0
 10 29  1  0
 11 30  1  1
 11 31  1  0
 11 32  1  0
  1 33  1  0
  2 34  1  0
  4 35  1  0
  7 36  1  0
  8 37  1  0
  9 38  1  0
 13 39  1  0
 18 40  1  0
 19 41  1  0
 22 42  1  0
 26 43  1  0
 27 44  1  0
 28 45  1  0
M  END
