6XAF_GDP_B_1602
     RDKit          3D

 28 30  0  0  0  0  0  0  0  0999 V2000
    4.0721   -6.4037   24.4563 P   0  0  2  0  0  0  0  0  0  0  0  0
    5.1273   -7.1202   23.6505 O   0  0  0  0  0  0  0  0  0  0  0  0
    2.5877   -6.7083   23.7057 O   0  0  0  0  0  0  0  0  0  0  0  0
    4.4013   -4.7423   24.3908 O   0  0  0  0  0  0  0  0  0  0  0  0
    4.0655   -6.9614   26.0558 O   0  0  0  0  0  0  0  0  0  0  0  0
    5.6743   -7.0992   26.5537 P   0  0  1  0  0  0  0  0  0  0  0  0
    6.3391   -8.1320   25.6722 O   0  0  0  0  0  0  0  0  0  0  0  0
    6.4154   -5.6035   26.3047 O   0  0  0  0  0  0  0  0  0  0  0  0
    5.8135   -7.6078   28.1555 O   0  0  0  0  0  0  0  0  0  0  0  0
    5.1034   -6.8215   29.0317 C   0  0  0  0  0  0  0  0  0  0  0  0
    4.7964   -7.4522   30.3525 C   0  0  1  0  0  0  0  0  0  0  0  0
    3.8385   -8.4826   30.2100 O   0  0  0  0  0  0  0  0  0  0  0  0
    5.9431   -8.2767   30.9167 C   0  0  1  0  0  0  0  0  0  0  0  0
    6.9709   -7.5163   31.4252 O   0  0  0  0  0  0  0  0  0  0  0  0
    5.1859   -8.9666   32.0593 C   0  0  1  0  0  0  0  0  0  0  0  0
    5.1362   -7.9864   33.0769 O   0  0  0  0  0  0  0  0  0  0  0  0
    3.8383   -9.1477   31.4188 C   0  0  2  0  0  0  0  0  0  0  0  0
    3.6016  -10.5712   31.2751 N   0  0  0  0  0  0  0  0  0  0  0  0
    3.7298  -11.3725   30.2170 C   0  0  0  0  0  0  0  0  0  0  0  0
    3.4015  -12.6442   30.5256 N   0  0  0  0  0  0  0  0  0  0  0  0
    3.0517  -12.6454   31.8323 C   0  0  0  0  0  0  0  0  0  0  0  0
    2.6301  -13.6435   32.6873 C   0  0  0  0  0  0  0  0  0  0  0  0
    2.5182  -14.8346   32.2451 O   0  0  0  0  0  0  0  0  0  0  0  0
    2.3470  -13.3366   33.9673 N   0  0  0  0  0  0  0  0  0  0  0  0
    2.4662  -12.0645   34.4411 C   0  0  0  0  0  0  0  0  0  0  0  0
    2.1496  -11.8022   35.8140 N   0  0  0  0  0  0  0  0  0  0  0  0
    2.8776  -11.0976   33.6014 N   0  0  0  0  0  0  0  0  0  0  0  0
    3.1774  -11.3509   32.2976 C   0  0  0  0  0  0  0  0  0  0  0  0
  1  2  2  0
  1  3  1  6
  1  4  1  0
  1  5  1  0
  5  6  1  0
  6  7  2  0
  6  8  1  1
  6  9  1  0
  9 10  1  0
 11 10  1  6
 11 12  1  0
 11 13  1  0
 13 14  1  1
 13 15  1  0
 15 16  1  1
 12 17  1  0
 15 17  1  0
 17 18  1  6
 18 19  1  0
 19 20  2  0
 20 21  1  0
 21 22  1  0
 22 23  2  0
 22 24  1  0
 24 25  1  0
 25 26  1  0
 25 27  2  0
 18 28  1  0
 21 28  2  0
 27 28  1  0
M  END
$$$$
