1OYT_FSN_H_501
     RDKit          3D

 30 34  0  0  0  0  0  0  0  0999 V2000
   16.9467  -11.8343   22.9706 O   0  0  0  0  0  0  0  0  0  0  0  0
   17.4860  -12.0161   21.8231 C   0  0  0  0  0  0  0  0  0  0  0  0
   18.3513  -13.1069   21.5343 N   0  0  0  0  0  0  0  0  0  0  0  0
   18.5209  -14.3706   22.1984 C   0  0  0  0  0  0  0  0  0  0  0  0
   19.5916  -14.3578   23.2328 C   0  0  0  0  0  0  0  0  0  0  0  0
   19.9032  -15.4936   23.9359 C   0  0  0  0  0  0  0  0  0  0  0  0
   20.9069  -15.4176   24.8833 C   0  0  0  0  0  0  0  0  0  0  0  0
   21.6014  -14.2544   25.1469 C   0  0  0  0  0  0  0  0  0  0  0  0
   22.5738  -14.1808   26.0646 F   0  0  0  0  0  0  0  0  0  0  0  0
   21.2564  -13.1164   24.4104 C   0  0  0  0  0  0  0  0  0  0  0  0
   20.2528  -13.1715   23.4558 C   0  0  0  0  0  0  0  0  0  0  0  0
   19.0827  -12.6790   20.3665 C   0  0  0  0  0  0  0  0  0  0  0  0
   20.2477  -13.0198   20.0185 O   0  0  0  0  0  0  0  0  0  0  0  0
   18.2053  -11.7416   19.6213 C   0  0  1  0  0  0  0  0  0  0  0  0
   17.2864  -12.4635   18.6762 C   0  0  1  0  0  0  0  0  0  0  0  0
   15.9937  -12.5298   19.3710 N   0  0  0  0  0  0  0  0  0  0  0  0
   15.0082  -12.6877   18.3217 C   0  0  0  0  0  0  0  0  0  0  0  0
   15.6456  -12.2669   17.0253 C   0  0  0  0  0  0  0  0  0  0  0  0
   16.9811  -11.6878   17.4211 C   0  0  0  0  0  0  0  0  0  0  0  0
   15.9494  -11.2579   20.0062 C   0  0  1  0  0  0  0  0  0  0  0  0
   14.8142  -11.1028   20.9410 C   0  0  0  0  0  0  0  0  0  0  0  0
   14.4773   -9.9049   21.5331 C   0  0  0  0  0  0  0  0  0  0  0  0
   13.3998   -9.7917   22.3989 C   0  0  0  0  0  0  0  0  0  0  0  0
   12.6146  -10.8735   22.7083 C   0  0  0  0  0  0  0  0  0  0  0  0
   12.9340  -12.0835   22.1268 C   0  0  0  0  0  0  0  0  0  0  0  0
   14.0059  -12.1903   21.2669 C   0  0  0  0  0  0  0  0  0  0  0  0
   11.4860  -10.7349   23.6205 C   0  0  0  0  0  0  0  0  0  0  0  0
   10.6492  -11.7289   23.7659 N   0  0  0  0  0  0  0  0  0  0  0  0
   11.2470   -9.5523   24.3723 N   0  0  0  0  0  0  0  0  0  0  0  0
   17.3032  -11.1487   20.6499 C   0  0  1  0  0  0  0  0  0  0  0  0
  1  2  2  0
  2  3  1  0
  3  4  1  0
  4  5  1  0
  5  6  2  0
  6  7  1  0
  7  8  2  0
  8  9  1  0
  8 10  1  0
  5 11  1  0
 10 11  2  0
  3 12  1  0
 12 13  2  0
 14 12  1  1
 14 15  1  0
 15 16  1  0
 16 17  1  0
 17 18  1  0
 15 19  1  6
 18 19  1  0
 16 20  1  0
 20 21  1  1
 21 22  2  0
 22 23  1  0
 23 24  2  0
 24 25  1  0
 21 26  1  0
 25 26  2  0
 24 27  1  0
 27 28  2  0
 27 29  1  0
 30  2  1  1
 14 30  1  0
 20 30  1  0
M  CHG  1  28   1
M  END
$$$$
