1OYT_FSN_H_501
     RDKit          3D

 30 34  0  0  0  0  0  0  0  0999 V2000
   16.9725  -11.8123   22.8373 O   0  0  0  0  0  0  0  0  0  0  0  0
   17.5208  -11.9746   21.6910 C   0  0  0  0  0  0  0  0  0  0  0  0
   18.4828  -12.9875   21.4253 N   0  0  0  0  0  0  0  0  0  0  0  0
   18.7728  -14.2112   22.1219 C   0  0  0  0  0  0  0  0  0  0  0  0
   19.8540  -14.0741   23.1362 C   0  0  0  0  0  0  0  0  0  0  0  0
   19.5546  -13.8812   24.4608 C   0  0  0  0  0  0  0  0  0  0  0  0
   20.6027  -13.7610   25.3540 C   0  0  0  0  0  0  0  0  0  0  0  0
   21.9263  -13.8270   24.9687 C   0  0  0  0  0  0  0  0  0  0  0  0
   22.9417  -13.7106   25.8340 F   0  0  0  0  0  0  0  0  0  0  0  0
   22.1933  -14.0246   23.6099 C   0  0  0  0  0  0  0  0  0  0  0  0
   21.1566  -14.1475   22.6981 C   0  0  0  0  0  0  0  0  0  0  0  0
   19.1653  -12.5256   20.2411 C   0  0  0  0  0  0  0  0  0  0  0  0
   20.3553  -12.7659   19.8937 O   0  0  0  0  0  0  0  0  0  0  0  0
   18.2006  -11.6949   19.4774 C   0  0  1  0  0  0  0  0  0  0  0  0
   17.3485  -12.5249   18.5589 C   0  0  1  0  0  0  0  0  0  0  0  0
   16.0710  -12.6923   19.2648 N   0  0  0  0  0  0  0  0  0  0  0  0
   15.0995  -12.9701   18.2275 C   0  0  0  0  0  0  0  0  0  0  0  0
   15.6885  -12.5275   16.9156 C   0  0  0  0  0  0  0  0  0  0  0  0
   16.9660  -11.8159   17.2858 C   0  0  0  0  0  0  0  0  0  0  0  0
   15.9113  -11.4131   19.8660 C   0  0  1  0  0  0  0  0  0  0  0  0
   14.7711  -11.3388   20.8047 C   0  0  0  0  0  0  0  0  0  0  0  0
   14.0592  -12.4424   21.2221 C   0  0  0  0  0  0  0  0  0  0  0  0
   12.9999  -12.3390   22.1113 C   0  0  0  0  0  0  0  0  0  0  0  0
   12.6091  -11.1259   22.6195 C   0  0  0  0  0  0  0  0  0  0  0  0
   13.3079  -10.0070   22.2148 C   0  0  0  0  0  0  0  0  0  0  0  0
   14.3600  -10.1156   21.3309 C   0  0  0  0  0  0  0  0  0  0  0  0
   11.4931  -11.0372   23.5534 C   0  0  0  0  0  0  0  0  0  0  0  0
   10.7584  -12.0943   23.7816 N   0  0  0  0  0  0  0  0  0  0  0  0
   11.1595   -9.8377   24.2395 N   0  0  0  0  0  0  0  0  0  0  0  0
   17.2521  -11.1606   20.4964 C   0  0  1  0  0  0  0  0  0  0  0  0
  1  2  2  0
  2  3  1  0
  3  4  1  0
  4  5  1  0
  5  6  2  0
  6  7  1  0
  7  8  2  0
  8  9  1  0
  8 10  1  0
  5 11  1  0
 10 11  2  0
  3 12  1  0
 12 13  2  0
 14 12  1  1
 14 15  1  0
 15 16  1  0
 16 17  1  0
 17 18  1  0
 15 19  1  6
 18 19  1  0
 16 20  1  0
 20 21  1  1
 21 22  2  0
 22 23  1  0
 23 24  2  0
 24 25  1  0
 21 26  1  0
 25 26  2  0
 24 27  1  0
 27 28  2  0
 27 29  1  0
 30  2  1  1
 14 30  1  0
 20 30  1  0
M  CHG  1  28   1
M  END
$$$$
