1OYT_FSN_H_501
     RDKit          3D

 30 34  0  0  0  0  0  0  0  0999 V2000
   13.8480  -12.1998   18.0950 O   0  0  0  0  0  0  0  0  0  0  0  0
   15.1203  -12.2985   17.9837 C   0  0  0  0  0  0  0  0  0  0  0  0
   15.8545  -11.7213   16.9114 N   0  0  0  0  0  0  0  0  0  0  0  0
   15.5109  -10.6611   16.0034 C   0  0  0  0  0  0  0  0  0  0  0  0
   15.0857  -11.1446   14.6610 C   0  0  0  0  0  0  0  0  0  0  0  0
   14.8573  -10.2622   13.6360 C   0  0  0  0  0  0  0  0  0  0  0  0
   14.4644  -10.7730   12.4131 C   0  0  0  0  0  0  0  0  0  0  0  0
   14.2945  -12.1235   12.1852 C   0  0  0  0  0  0  0  0  0  0  0  0
   13.9138  -12.6183   11.0005 F   0  0  0  0  0  0  0  0  0  0  0  0
   14.5364  -12.9932   13.2537 C   0  0  0  0  0  0  0  0  0  0  0  0
   14.9312  -12.5012   14.4880 C   0  0  0  0  0  0  0  0  0  0  0  0
   17.0991  -12.4510   16.9014 C   0  0  0  0  0  0  0  0  0  0  0  0
   17.8514  -12.6789   15.9132 O   0  0  0  0  0  0  0  0  0  0  0  0
   17.3522  -12.9014   18.2931 C   0  0  1  0  0  0  0  0  0  0  0  0
   18.0700  -11.8563   19.1000 C   0  0  1  0  0  0  0  0  0  0  0  0
   17.0256  -11.2023   19.8998 N   0  0  0  0  0  0  0  0  0  0  0  0
   17.7205  -10.6315   21.0349 C   0  0  0  0  0  0  0  0  0  0  0  0
   19.0566  -11.3144   21.1468 C   0  0  0  0  0  0  0  0  0  0  0  0
   19.0075  -12.4287   20.1312 C   0  0  0  0  0  0  0  0  0  0  0  0
   16.1958  -12.3072   20.2376 C   0  0  1  0  0  0  0  0  0  0  0  0
   14.9384  -11.9182   20.9117 C   0  0  0  0  0  0  0  0  0  0  0  0
   14.0388  -12.8284   21.4229 C   0  0  0  0  0  0  0  0  0  0  0  0
   12.8722  -12.4297   22.0580 C   0  0  0  0  0  0  0  0  0  0  0  0
   12.5574  -11.1026   22.2076 C   0  0  0  0  0  0  0  0  0  0  0  0
   13.4440  -10.1735   21.7028 C   0  0  0  0  0  0  0  0  0  0  0  0
   14.6021  -10.5754   21.0726 C   0  0  0  0  0  0  0  0  0  0  0  0
   11.3263  -10.7029   22.8783 C   0  0  0  0  0  0  0  0  0  0  0  0
   11.1449   -9.4481   23.1978 N   0  0  0  0  0  0  0  0  0  0  0  0
   10.2964  -11.6259   23.2072 N   0  0  0  0  0  0  0  0  0  0  0  0
   16.0040  -13.0070   18.9214 C   0  0  1  0  0  0  0  0  0  0  0  0
  1  2  2  0
  2  3  1  0
  3  4  1  0
  4  5  1  0
  5  6  2  0
  6  7  1  0
  7  8  2  0
  8  9  1  0
  8 10  1  0
  5 11  1  0
 10 11  2  0
  3 12  1  0
 12 13  2  0
 14 12  1  6
 14 15  1  0
 15 16  1  0
 16 17  1  0
 17 18  1  0
 15 19  1  1
 18 19  1  0
 16 20  1  0
 20 21  1  6
 21 22  2  0
 22 23  1  0
 23 24  2  0
 24 25  1  0
 21 26  1  0
 25 26  2  0
 24 27  1  0
 27 28  2  0
 27 29  1  0
 30  2  1  6
 14 30  1  0
 20 30  1  0
M  CHG  1  28   1
M  END
$$$$
