1OYT_FSN_H_501
     RDKit          3D

 30 34  0  0  0  0  0  0  0  0999 V2000
   16.9384  -11.6974   22.8657 O   0  0  0  0  0  0  0  0  0  0  0  0
   17.4843  -11.8445   21.7163 C   0  0  0  0  0  0  0  0  0  0  0  0
   18.4537  -12.8469   21.4381 N   0  0  0  0  0  0  0  0  0  0  0  0
   18.7561  -14.0745   22.1224 C   0  0  0  0  0  0  0  0  0  0  0  0
   19.8476  -13.9406   23.1260 C   0  0  0  0  0  0  0  0  0  0  0  0
   21.1607  -14.0957   22.7612 C   0  0  0  0  0  0  0  0  0  0  0  0
   22.1283  -13.9594   23.7390 C   0  0  0  0  0  0  0  0  0  0  0  0
   21.8274  -13.6760   25.0558 C   0  0  0  0  0  0  0  0  0  0  0  0
   22.7647  -13.5440   26.0031 F   0  0  0  0  0  0  0  0  0  0  0  0
   20.4778  -13.5246   25.3907 C   0  0  0  0  0  0  0  0  0  0  0  0
   19.4923  -13.6574   24.4251 C   0  0  0  0  0  0  0  0  0  0  0  0
   19.1286  -12.3683   20.2561 C   0  0  0  0  0  0  0  0  0  0  0  0
   20.3194  -12.5955   19.9027 O   0  0  0  0  0  0  0  0  0  0  0  0
   18.1547  -11.5386   19.5033 C   0  0  1  0  0  0  0  0  0  0  0  0
   17.3065  -12.3671   18.5798 C   0  0  1  0  0  0  0  0  0  0  0  0
   16.0327  -12.5516   19.2881 N   0  0  0  0  0  0  0  0  0  0  0  0
   15.0602  -12.8278   18.2513 C   0  0  0  0  0  0  0  0  0  0  0  0
   15.6413  -12.3681   16.9417 C   0  0  0  0  0  0  0  0  0  0  0  0
   16.9141  -11.6494   17.3145 C   0  0  0  0  0  0  0  0  0  0  0  0
   15.8644  -11.2793   19.9016 C   0  0  1  0  0  0  0  0  0  0  0  0
   14.7266  -11.2232   20.8445 C   0  0  0  0  0  0  0  0  0  0  0  0
   13.9606  -12.3200   21.1750 C   0  0  0  0  0  0  0  0  0  0  0  0
   12.9053  -12.2350   22.0708 C   0  0  0  0  0  0  0  0  0  0  0  0
   12.5727  -11.0478   22.6730 C   0  0  0  0  0  0  0  0  0  0  0  0
   13.3263   -9.9361   22.3563 C   0  0  0  0  0  0  0  0  0  0  0  0
   14.3743  -10.0264   21.4654 C   0  0  0  0  0  0  0  0  0  0  0  0
   11.4599  -10.9781   23.6121 C   0  0  0  0  0  0  0  0  0  0  0  0
   11.2569   -9.8788   24.2902 N   0  0  0  0  0  0  0  0  0  0  0  0
   10.5698  -12.0649   23.8301 N   0  0  0  0  0  0  0  0  0  0  0  0
   17.2051  -11.0216   20.5301 C   0  0  1  0  0  0  0  0  0  0  0  0
  1  2  2  0
  2  3  1  0
  3  4  1  0
  4  5  1  0
  5  6  2  0
  6  7  1  0
  7  8  2  0
  8  9  1  0
  8 10  1  0
  5 11  1  0
 10 11  2  0
  3 12  1  0
 12 13  2  0
 14 12  1  1
 14 15  1  0
 15 16  1  0
 16 17  1  0
 17 18  1  0
 15 19  1  6
 18 19  1  0
 16 20  1  0
 20 21  1  1
 21 22  2  0
 22 23  1  0
 23 24  2  0
 24 25  1  0
 21 26  1  0
 25 26  2  0
 24 27  1  0
 27 28  2  0
 27 29  1  0
 30  2  1  1
 14 30  1  0
 20 30  1  0
M  CHG  1  28   1
M  END
$$$$
