1OYT_FSN_H_501
     RDKit          3D

 30 34  0  0  0  0  0  0  0  0999 V2000
   16.9255  -11.7582   22.9119 O   0  0  0  0  0  0  0  0  0  0  0  0
   17.4789  -11.9414   21.7712 C   0  0  0  0  0  0  0  0  0  0  0  0
   18.4054  -12.9893   21.5154 N   0  0  0  0  0  0  0  0  0  0  0  0
   18.6432  -14.2223   22.2153 C   0  0  0  0  0  0  0  0  0  0  0  0
   19.8078  -14.1635   23.1410 C   0  0  0  0  0  0  0  0  0  0  0  0
   19.9031  -15.0226   24.2061 C   0  0  0  0  0  0  0  0  0  0  0  0
   21.0086  -14.9182   25.0294 C   0  0  0  0  0  0  0  0  0  0  0  0
   22.0109  -13.9920   24.8236 C   0  0  0  0  0  0  0  0  0  0  0  0
   23.0818  -13.8909   25.6212 F   0  0  0  0  0  0  0  0  0  0  0  0
   21.8797  -13.1328   23.7276 C   0  0  0  0  0  0  0  0  0  0  0  0
   20.7789  -13.2211   22.8899 C   0  0  0  0  0  0  0  0  0  0  0  0
   19.1163  -12.5537   20.3379 C   0  0  0  0  0  0  0  0  0  0  0  0
   20.2999  -12.8379   20.0024 O   0  0  0  0  0  0  0  0  0  0  0  0
   18.1904  -11.6886   19.5644 C   0  0  1  0  0  0  0  0  0  0  0  0
   17.3175  -12.4873   18.6377 C   0  0  1  0  0  0  0  0  0  0  0  0
   16.0277  -12.6070   19.3310 N   0  0  0  0  0  0  0  0  0  0  0  0
   15.0570  -12.8496   18.2841 C   0  0  0  0  0  0  0  0  0  0  0  0
   15.6749  -12.4300   16.9780 C   0  0  0  0  0  0  0  0  0  0  0  0
   16.9740  -11.7656   17.3606 C   0  0  0  0  0  0  0  0  0  0  0  0
   15.9093  -11.3223   19.9300 C   0  0  1  0  0  0  0  0  0  0  0  0
   14.7634  -11.2054   20.8573 C   0  0  0  0  0  0  0  0  0  0  0  0
   13.9487  -12.2647   21.1936 C   0  0  0  0  0  0  0  0  0  0  0  0
   12.8869  -12.1230   22.0745 C   0  0  0  0  0  0  0  0  0  0  0  0
   12.5962  -10.9143   22.6551 C   0  0  0  0  0  0  0  0  0  0  0  0
   13.3990   -9.8394   22.3322 C   0  0  0  0  0  0  0  0  0  0  0  0
   14.4531   -9.9860   21.4563 C   0  0  0  0  0  0  0  0  0  0  0  0
   11.4758  -10.7850   23.5788 C   0  0  0  0  0  0  0  0  0  0  0  0
   11.3250   -9.6778   24.2577 N   0  0  0  0  0  0  0  0  0  0  0  0
   10.5233  -11.8208   23.7805 N   0  0  0  0  0  0  0  0  0  0  0  0
   17.2522  -11.1189   20.5737 C   0  0  1  0  0  0  0  0  0  0  0  0
  1  2  2  0
  2  3  1  0
  3  4  1  0
  4  5  1  0
  5  6  2  0
  6  7  1  0
  7  8  2  0
  8  9  1  0
  8 10  1  0
  5 11  1  0
 10 11  2  0
  3 12  1  0
 12 13  2  0
 14 12  1  1
 14 15  1  0
 15 16  1  0
 16 17  1  0
 17 18  1  0
 15 19  1  6
 18 19  1  0
 16 20  1  0
 20 21  1  1
 21 22  2  0
 22 23  1  0
 23 24  2  0
 24 25  1  0
 21 26  1  0
 25 26  2  0
 24 27  1  0
 27 28  2  0
 27 29  1  0
 30  2  1  1
 14 30  1  0
 20 30  1  0
M  CHG  1  28   1
M  END
$$$$
