1OYT_FSN_H_501
     RDKit          3D

 30 34  0  0  0  0  0  0  0  0999 V2000
   16.9733  -11.9098   22.9658 O   0  0  0  0  0  0  0  0  0  0  0  0
   17.5121  -12.0871   21.8173 C   0  0  0  0  0  0  0  0  0  0  0  0
   18.3735  -13.1794   21.5225 N   0  0  0  0  0  0  0  0  0  0  0  0
   18.5384  -14.4474   22.1795 C   0  0  0  0  0  0  0  0  0  0  0  0
   19.6217  -14.4496   23.2008 C   0  0  0  0  0  0  0  0  0  0  0  0
   19.9483  -15.5977   23.8765 C   0  0  0  0  0  0  0  0  0  0  0  0
   20.9632  -15.5354   24.8129 C   0  0  0  0  0  0  0  0  0  0  0  0
   21.6544  -14.3738   25.0919 C   0  0  0  0  0  0  0  0  0  0  0  0
   22.6376  -14.3134   25.9990 F   0  0  0  0  0  0  0  0  0  0  0  0
   21.2939  -13.2229   24.3833 C   0  0  0  0  0  0  0  0  0  0  0  0
   20.2789  -13.2643   23.4402 C   0  0  0  0  0  0  0  0  0  0  0  0
   19.1067  -12.7475   20.3573 C   0  0  0  0  0  0  0  0  0  0  0  0
   20.2704  -13.0906   20.0076 O   0  0  0  0  0  0  0  0  0  0  0  0
   18.2328  -11.8028   19.6173 C   0  0  1  0  0  0  0  0  0  0  0  0
   17.3115  -12.5160   18.6680 C   0  0  1  0  0  0  0  0  0  0  0  0
   16.0184  -12.5816   19.3622 N   0  0  0  0  0  0  0  0  0  0  0  0
   15.0325  -12.7300   18.3118 C   0  0  0  0  0  0  0  0  0  0  0  0
   15.6717  -12.3041   17.0180 C   0  0  0  0  0  0  0  0  0  0  0  0
   17.0092  -11.7321   17.4173 C   0  0  0  0  0  0  0  0  0  0  0  0
   15.9786  -11.3131   20.0046 C   0  0  1  0  0  0  0  0  0  0  0  0
   14.8437  -11.1592   20.9401 C   0  0  0  0  0  0  0  0  0  0  0  0
   14.5039   -9.9609   21.5297 C   0  0  0  0  0  0  0  0  0  0  0  0
   13.4268   -9.8488   22.3962 C   0  0  0  0  0  0  0  0  0  0  0  0
   12.6451  -10.9323   22.7088 C   0  0  0  0  0  0  0  0  0  0  0  0
   12.9675  -12.1427   22.1299 C   0  0  0  0  0  0  0  0  0  0  0  0
   14.0390  -12.2483   21.2692 C   0  0  0  0  0  0  0  0  0  0  0  0
   11.5170  -10.7948   23.6218 C   0  0  0  0  0  0  0  0  0  0  0  0
   10.6797  -11.7887   23.7655 N   0  0  0  0  0  0  0  0  0  0  0  0
   11.2789   -9.6136   24.3760 N   0  0  0  0  0  0  0  0  0  0  0  0
   17.3327  -11.2124   20.6491 C   0  0  1  0  0  0  0  0  0  0  0  0
  1  2  2  0
  2  3  1  0
  3  4  1  0
  4  5  1  0
  5  6  2  0
  6  7  1  0
  7  8  2  0
  8  9  1  0
  8 10  1  0
  5 11  1  0
 10 11  2  0
  3 12  1  0
 12 13  2  0
 14 12  1  1
 14 15  1  0
 15 16  1  0
 16 17  1  0
 17 18  1  0
 15 19  1  6
 18 19  1  0
 16 20  1  0
 20 21  1  1
 21 22  2  0
 22 23  1  0
 23 24  2  0
 24 25  1  0
 21 26  1  0
 25 26  2  0
 24 27  1  0
 27 28  2  0
 27 29  1  0
 30  2  1  1
 14 30  1  0
 20 30  1  0
M  CHG  1  28   1
M  END
$$$$
