1OYT_FSN_H_501
     RDKit          3D

 30 34  0  0  0  0  0  0  0  0999 V2000
   16.9986  -11.8836   22.2786 O   0  0  0  0  0  0  0  0  0  0  0  0
   17.3929  -11.8818   21.0599 C   0  0  0  0  0  0  0  0  0  0  0  0
   18.2344  -12.8891   20.5130 N   0  0  0  0  0  0  0  0  0  0  0  0
   18.5082  -14.2273   20.9613 C   0  0  0  0  0  0  0  0  0  0  0  0
   19.9015  -14.4149   21.4516 C   0  0  0  0  0  0  0  0  0  0  0  0
   20.3119  -15.6219   21.9576 C   0  0  0  0  0  0  0  0  0  0  0  0
   21.6178  -15.7331   22.3971 C   0  0  0  0  0  0  0  0  0  0  0  0
   22.5164  -14.6867   22.3471 C   0  0  0  0  0  0  0  0  0  0  0  0
   23.7814  -14.7944   22.7729 F   0  0  0  0  0  0  0  0  0  0  0  0
   22.0623  -13.4712   21.8249 C   0  0  0  0  0  0  0  0  0  0  0  0
   20.7566  -13.3390   21.3789 C   0  0  0  0  0  0  0  0  0  0  0  0
   18.8059  -12.2744   19.3395 C   0  0  0  0  0  0  0  0  0  0  0  0
   19.9239  -12.5208   18.8067 O   0  0  0  0  0  0  0  0  0  0  0  0
   17.8255  -11.2727   18.8503 C   0  0  1  0  0  0  0  0  0  0  0  0
   16.8083  -11.8856   17.9292 C   0  0  1  0  0  0  0  0  0  0  0  0
   15.6142  -12.0957   18.7590 N   0  0  0  0  0  0  0  0  0  0  0  0
   14.5080  -12.1383   17.8255 C   0  0  0  0  0  0  0  0  0  0  0  0
   14.9702  -11.5156   16.5361 C   0  0  0  0  0  0  0  0  0  0  0  0
   16.3344  -10.9513   16.8464 C   0  0  0  0  0  0  0  0  0  0  0  0
   15.6275  -10.9289   19.5726 C   0  0  1  0  0  0  0  0  0  0  0  0
   14.6158  -10.9484   20.6509 C   0  0  0  0  0  0  0  0  0  0  0  0
   13.8349  -12.0468   20.9388 C   0  0  0  0  0  0  0  0  0  0  0  0
   12.9010  -12.0347   21.9639 C   0  0  0  0  0  0  0  0  0  0  0  0
   12.7096  -10.9221   22.7436 C   0  0  0  0  0  0  0  0  0  0  0  0
   13.4806   -9.8102   22.4728 C   0  0  0  0  0  0  0  0  0  0  0  0
   14.4076   -9.8277   21.4528 C   0  0  0  0  0  0  0  0  0  0  0  0
   11.7229  -10.9285   23.8168 C   0  0  0  0  0  0  0  0  0  0  0  0
   11.6282   -9.8944   24.6111 N   0  0  0  0  0  0  0  0  0  0  0  0
   10.8442  -12.0223   24.0455 N   0  0  0  0  0  0  0  0  0  0  0  0
   17.0491  -10.8640   20.0559 C   0  0  1  0  0  0  0  0  0  0  0  0
  1  2  2  0
  2  3  1  0
  3  4  1  0
  4  5  1  0
  5  6  2  0
  6  7  1  0
  7  8  2  0
  8  9  1  0
  8 10  1  0
  5 11  1  0
 10 11  2  0
  3 12  1  0
 12 13  2  0
 14 12  1  1
 14 15  1  0
 15 16  1  0
 16 17  1  0
 17 18  1  0
 15 19  1  6
 18 19  1  0
 16 20  1  0
 20 21  1  1
 21 22  2  0
 22 23  1  0
 23 24  2  0
 24 25  1  0
 21 26  1  0
 25 26  2  0
 24 27  1  0
 27 28  2  0
 27 29  1  0
 30  2  1  1
 14 30  1  0
 20 30  1  0
M  CHG  1  28   1
M  END
$$$$
