1OYT_FSN_H_501
     RDKit          3D

 30 34  0  0  0  0  0  0  0  0999 V2000
   17.0424  -11.7148   22.8820 O   0  0  0  0  0  0  0  0  0  0  0  0
   17.5442  -11.9105   21.7198 C   0  0  0  0  0  0  0  0  0  0  0  0
   18.4815  -12.9428   21.4410 N   0  0  0  0  0  0  0  0  0  0  0  0
   18.7813  -14.1547   22.1538 C   0  0  0  0  0  0  0  0  0  0  0  0
   19.9481  -14.0303   23.0703 C   0  0  0  0  0  0  0  0  0  0  0  0
   21.2305  -14.1109   22.5903 C   0  0  0  0  0  0  0  0  0  0  0  0
   22.2715  -13.9878   23.4914 C   0  0  0  0  0  0  0  0  0  0  0  0
   22.0728  -13.7888   24.8426 C   0  0  0  0  0  0  0  0  0  0  0  0
   23.0812  -13.6696   25.7156 F   0  0  0  0  0  0  0  0  0  0  0  0
   20.7516  -13.7118   25.2956 C   0  0  0  0  0  0  0  0  0  0  0  0
   19.6936  -13.8327   24.4083 C   0  0  0  0  0  0  0  0  0  0  0  0
   19.1244  -12.5174   20.2214 C   0  0  0  0  0  0  0  0  0  0  0  0
   20.2969  -12.7824   19.8347 O   0  0  0  0  0  0  0  0  0  0  0  0
   18.1426  -11.6901   19.4761 C   0  0  1  0  0  0  0  0  0  0  0  0
   17.2448  -12.5281   18.6098 C   0  0  1  0  0  0  0  0  0  0  0  0
   15.9931  -12.6613   19.3673 N   0  0  0  0  0  0  0  0  0  0  0  0
   14.9789  -12.9482   18.3742 C   0  0  0  0  0  0  0  0  0  0  0  0
   15.5233  -12.5435   17.0312 C   0  0  0  0  0  0  0  0  0  0  0  0
   16.8235  -11.8422   17.3362 C   0  0  0  0  0  0  0  0  0  0  0  0
   15.8738  -11.3667   19.9447 C   0  0  1  0  0  0  0  0  0  0  0  0
   14.7715  -11.2551   20.9240 C   0  0  0  0  0  0  0  0  0  0  0  0
   14.4227  -10.0739   21.5421 C   0  0  0  0  0  0  0  0  0  0  0  0
   13.3765  -10.0017   22.4498 C   0  0  0  0  0  0  0  0  0  0  0  0
   12.6361  -11.1096   22.7767 C   0  0  0  0  0  0  0  0  0  0  0  0
   12.9682  -12.3035   22.1698 C   0  0  0  0  0  0  0  0  0  0  0  0
   14.0087  -12.3695   21.2682 C   0  0  0  0  0  0  0  0  0  0  0  0
   11.5399  -11.0140   23.7331 C   0  0  0  0  0  0  0  0  0  0  0  0
   11.3062   -9.8763   24.3335 N   0  0  0  0  0  0  0  0  0  0  0  0
   10.6989  -12.1154   24.0498 N   0  0  0  0  0  0  0  0  0  0  0  0
   17.2411  -11.1195   20.5179 C   0  0  1  0  0  0  0  0  0  0  0  0
  1  2  2  0
  2  3  1  0
  3  4  1  0
  4  5  1  0
  5  6  2  0
  6  7  1  0
  7  8  2  0
  8  9  1  0
  8 10  1  0
  5 11  1  0
 10 11  2  0
  3 12  1  0
 12 13  2  0
 14 12  1  1
 14 15  1  0
 15 16  1  0
 16 17  1  0
 17 18  1  0
 15 19  1  6
 18 19  1  0
 16 20  1  0
 20 21  1  1
 21 22  2  0
 22 23  1  0
 23 24  2  0
 24 25  1  0
 21 26  1  0
 25 26  2  0
 24 27  1  0
 27 28  2  0
 27 29  1  0
 30  2  1  1
 14 30  1  0
 20 30  1  0
M  CHG  1  28   1
M  END
$$$$
