6YT6_PKE_B_701
     RDKit          3D

 31 34  0  0  0  0  0  0  0  0999 V2000
   -0.1794    0.7189   -2.3506 C   0  0  0  0  0  0  0  0  0  0  0  0
    3.0670   -0.7185   -0.2204 C   0  0  0  0  0  0  0  0  0  0  0  0
    4.4763   -1.2547   -0.1562 C   0  0  0  0  0  0  0  0  0  0  0  0
    5.5424   -0.6296   -0.7958 C   0  0  0  0  0  0  0  0  0  0  0  0
    6.8148   -1.1702   -0.7202 C   0  0  0  0  0  0  0  0  0  0  0  0
    7.0000   -2.3290    0.0018 C   0  0  0  0  0  0  0  0  0  0  0  0
    4.7931   -2.4304    0.5476 C   0  0  0  0  0  0  0  0  0  0  0  0
    4.2134   -4.5197    3.5100 C   0  0  0  0  0  0  0  0  0  0  0  0
   -2.6906    0.4777   -1.9658 C   0  0  0  0  0  0  0  0  0  0  0  0
   -5.0895    0.3560   -2.2195 C   0  0  0  0  0  0  0  0  0  0  0  0
   -4.1101    1.7345   -0.4862 C   0  0  0  0  0  0  0  0  0  0  0  0
    0.8025    0.3110   -1.5298 N   0  0  0  0  0  0  0  0  0  0  0  0
   -0.1227    1.7441   -3.2133 N   0  0  0  0  0  0  0  0  0  0  0  0
    1.0340    2.4148   -3.2323 C   0  0  0  0  0  0  0  0  0  0  0  0
    2.1139    2.0968   -2.4397 C   0  0  0  0  0  0  0  0  0  0  0  0
    1.9446    1.0114   -1.5873 C   0  0  0  0  0  0  0  0  0  0  0  0
    2.9609    0.6191   -0.7736 N   0  0  0  0  0  0  0  0  0  0  0  0
   -1.3907    0.0970   -2.3457 N   0  0  0  0  0  0  0  0  0  0  0  0
    6.0141   -2.9719    0.6417 N   0  0  0  0  0  0  0  0  0  0  0  0
    3.7258   -3.1274    1.2197 N   0  0  0  0  0  0  0  0  0  0  0  0
    3.6419   -3.0027    2.8434 S   0  0  1  0  0  0  0  0  0  0  0  0
    3.2941   -4.3898    0.6133 C   0  0  0  0  0  0  0  0  0  0  0  0
    2.2606   -2.8587    3.1694 O   0  0  0  0  0  0  0  0  0  0  0  0
    4.5502   -1.9709    3.2201 O   0  0  0  0  0  0  0  0  0  0  0  0
   -2.8400    1.3582   -0.8967 C   0  0  0  0  0  0  0  0  0  0  0  0
   -3.8166   -0.0160   -2.6231 C   0  0  0  0  0  0  0  0  0  0  0  0
   -5.2213    1.2297   -1.1490 C   0  0  0  0  0  0  0  0  0  0  0  0
   -4.5894    2.6392    0.6075 C   0  0  0  0  0  0  0  0  0  0  0  0
   -6.0952    2.5387    0.5003 C   0  0  0  0  0  0  0  0  0  0  0  0
   -6.3805    1.7217   -0.5460 N   0  0  0  0  0  0  0  0  0  0  0  0
   -6.9217    3.0705    1.2310 O   0  0  0  0  0  0  0  0  0  0  0  0
  2  3  1  0
  3  4  2  0
  4  5  1  0
  5  6  2  0
  3  7  1  0
  1 12  2  0
  1 13  1  0
 13 14  2  0
 14 15  1  0
 15 16  2  0
 12 16  1  0
 16 17  1  0
  2 17  1  0
  1 18  1  0
  9 18  1  0
  6 19  1  0
  7 19  2  0
  7 20  1  0
 20 21  1  0
 21  8  1  1
 20 22  1  0
 21 23  2  0
 21 24  2  0
  9 25  2  0
 11 25  1  0
  9 26  1  0
 10 26  2  0
 11 27  2  0
 10 27  1  0
 11 28  1  0
 28 29  1  0
 27 30  1  0
 29 30  1  0
 29 31  2  0
M  END
