1GKC_NFH_A_1448
     RDKit          3D

 22 21  0  0  0  0  0  0  0  0999 V2000
   81.6639   22.3484  118.1397 C   0  0  0  0  0  0  0  0  0  0  0  0
   84.1631   21.7094  116.2947 N   0  0  0  0  0  0  0  0  0  0  0  0
   81.2848   21.2253  118.5667 O   0  0  0  0  0  0  0  0  0  0  0  0
   80.5350   23.0179  121.1416 C   0  0  0  0  0  0  0  0  0  0  0  0
   81.8341   23.3327  119.1888 N   0  0  0  0  0  0  0  0  0  0  0  0
   79.8389   24.0553  120.9402 O   0  0  0  0  0  0  0  0  0  0  0  0
   79.9389   22.0066  121.9419 N   0  0  0  0  0  0  0  0  0  0  0  0
   81.9213   22.6830  116.7319 C   0  0  2  0  0  0  0  0  0  0  0  0
   80.8660   23.2428  115.9071 C   0  0  0  0  0  0  0  0  0  0  0  0
   79.9489   24.3043  116.2883 C   0  0  1  0  0  0  0  0  0  0  0  0
   85.1571   20.8226  115.8342 C   0  0  0  0  0  0  0  0  0  0  0  0
   86.3914   21.0602  116.0719 O   0  0  0  0  0  0  0  0  0  0  0  0
   82.7378   21.5559  116.1211 C   0  0  0  0  0  0  0  0  0  0  0  0
   84.5622   22.8345  116.9761 O   0  0  0  0  0  0  0  0  0  0  0  0
   81.9031   22.8899  120.5591 C   0  0  1  0  0  0  0  0  0  0  0  0
   82.7840   23.9162  121.2833 C   0  0  1  0  0  0  0  0  0  0  0  0
   78.8923   24.7605  115.3204 C   0  0  0  0  0  0  0  0  0  0  0  0
   79.1025   23.7190  117.4608 C   0  0  0  0  0  0  0  0  0  0  0  0
   82.2044   25.3024  121.0680 C   0  0  0  0  0  0  0  0  0  0  0  0
   82.8278   23.6642  122.7654 C   0  0  0  0  0  0  0  0  0  0  0  0
   84.1821   23.8342  120.7341 C   0  0  0  0  0  0  0  0  0  0  0  0
   78.6530   22.1634  122.5954 C   0  0  0  0  0  0  0  0  0  0  0  0
  1  3  2  0
  1  5  1  0
  4  6  2  0
  4  7  1  0
  1  8  1  0
  8  9  1  6
  9 10  1  0
  2 11  1  0
 11 12  2  0
  8 13  1  0
  2 13  1  0
  2 14  1  0
  4 15  1  0
 15  5  1  6
 15 16  1  0
 10 17  1  6
 10 18  1  0
 16 19  1  1
 16 20  1  0
 16 21  1  0
  7 22  1  0
M  END
$$$$
