1GKC_NFH_A_1448
     RDKit          3D

 22 21  0  0  0  0  0  0  0  0999 V2000
   67.3504   32.4353  115.0257 C   0  0  0  0  0  0  0  0  0  0  0  0
   67.6396   33.1248  111.4753 N   0  0  0  0  0  0  0  0  0  0  0  0
   66.9863   33.4229  115.7182 O   0  0  0  0  0  0  0  0  0  0  0  0
   66.6547   30.9543  117.8819 C   0  0  0  0  0  0  0  0  0  0  0  0
   66.8656   31.1687  115.5346 N   0  0  0  0  0  0  0  0  0  0  0  0
   67.4737   29.9967  117.9988 O   0  0  0  0  0  0  0  0  0  0  0  0
   66.5014   31.7926  119.0186 N   0  0  0  0  0  0  0  0  0  0  0  0
   68.1832   32.5023  113.8166 C   0  0  2  0  0  0  0  0  0  0  0  0
   69.6306   32.5276  113.9243 C   0  0  0  0  0  0  0  0  0  0  0  0
   70.4437   31.6791  114.7799 C   0  0  1  0  0  0  0  0  0  0  0  0
   67.8949   31.8289  110.9831 C   0  0  0  0  0  0  0  0  0  0  0  0
   67.8634   31.6008  109.7248 O   0  0  0  0  0  0  0  0  0  0  0  0
   67.5533   33.5064  112.8652 C   0  0  0  0  0  0  0  0  0  0  0  0
   67.4511   34.1387  110.5665 O   0  0  0  0  0  0  0  0  0  0  0  0
   65.9047   31.1681  116.6094 C   0  0  1  0  0  0  0  0  0  0  0  0
   65.0425   29.9173  116.3950 C   0  0  1  0  0  0  0  0  0  0  0  0
   71.9432   31.7428  114.6852 C   0  0  0  0  0  0  0  0  0  0  0  0
   70.1757   32.1784  116.2333 C   0  0  0  0  0  0  0  0  0  0  0  0
   65.9413   28.6942  116.3897 C   0  0  0  0  0  0  0  0  0  0  0  0
   64.0357   29.7400  117.4981 C   0  0  0  0  0  0  0  0  0  0  0  0
   64.3127   30.0455  115.0858 C   0  0  0  0  0  0  0  0  0  0  0  0
   67.1697   31.5490  120.2833 C   0  0  0  0  0  0  0  0  0  0  0  0
  1  3  2  0
  1  5  1  0
  4  6  2  0
  4  7  1  0
  1  8  1  0
  8  9  1  1
  9 10  1  0
  2 11  1  0
 11 12  2  0
  8 13  1  0
  2 13  1  0
  2 14  1  0
  4 15  1  0
 15  5  1  6
 15 16  1  0
 10 17  1  6
 10 18  1  0
 16 19  1  6
 16 20  1  0
 16 21  1  0
  7 22  1  0
M  END
$$$$
