1GKC_NFH_A_1448
     RDKit          3D

 22 21  0  0  0  0  0  0  0  0999 V2000
   57.2406    7.4452  116.1688 C   0  0  0  0  0  0  0  0  0  0  0  0
   54.7022    8.1064  114.2463 N   0  0  0  0  0  0  0  0  0  0  0  0
   57.8224    7.9010  115.1484 O   0  0  0  0  0  0  0  0  0  0  0  0
   59.8985    5.6444  116.3708 C   0  0  0  0  0  0  0  0  0  0  0  0
   58.1558    7.0113  117.2044 N   0  0  0  0  0  0  0  0  0  0  0  0
   59.4127    4.5954  116.8853 O   0  0  0  0  0  0  0  0  0  0  0  0
   60.7585    5.4573  115.2555 N   0  0  0  0  0  0  0  0  0  0  0  0
   55.7853    7.3393  116.3447 C   0  0  2  0  0  0  0  0  0  0  0  0
   55.1308    6.0455  116.2737 C   0  0  0  0  0  0  0  0  0  0  0  0
   53.9723    5.6250  117.0445 C   0  0  1  0  0  0  0  0  0  0  0  0
   55.2102    7.0434  113.4726 C   0  0  0  0  0  0  0  0  0  0  0  0
   54.9158    6.9532  112.2310 O   0  0  0  0  0  0  0  0  0  0  0  0
   55.1333    8.4756  115.5740 C   0  0  0  0  0  0  0  0  0  0  0  0
   53.7009    8.8796  113.7088 O   0  0  0  0  0  0  0  0  0  0  0  0
   59.5700    6.9908  116.9247 C   0  0  1  0  0  0  0  0  0  0  0  0
   60.2646    7.0831  118.2896 C   0  0  1  0  0  0  0  0  0  0  0  0
   53.5444    4.1836  117.0218 C   0  0  0  0  0  0  0  0  0  0  0  0
   54.3701    5.8355  118.5382 C   0  0  0  0  0  0  0  0  0  0  0  0
   59.7672    5.9536  119.1731 C   0  0  0  0  0  0  0  0  0  0  0  0
   61.7568    6.9426  118.1648 C   0  0  0  0  0  0  0  0  0  0  0  0
   59.9514    8.4182  118.9079 C   0  0  0  0  0  0  0  0  0  0  0  0
   61.0505    4.1556  114.6850 C   0  0  0  0  0  0  0  0  0  0  0  0
  1  3  2  0
  1  5  1  0
  4  6  2  0
  4  7  1  0
  1  8  1  0
  8  9  1  6
  9 10  1  0
  2 11  1  0
 11 12  2  0
  8 13  1  0
  2 13  1  0
  2 14  1  0
  4 15  1  0
 15  5  1  1
 15 16  1  0
 10 17  1  1
 10 18  1  0
 16 19  1  1
 16 20  1  0
 16 21  1  0
  7 22  1  0
M  END
$$$$
