1GKC_NFH_A_1448
     RDKit          3D

 22 21  0  0  0  0  0  0  0  0999 V2000
   45.4441   10.5350  153.2271 C   0  0  0  0  0  0  0  0  0  0  0  0
   45.7670   10.4099  155.9915 N   0  0  0  0  0  0  0  0  0  0  0  0
   44.9223    9.4212  152.9537 O   0  0  0  0  0  0  0  0  0  0  0  0
   43.1305   12.0731  151.1323 C   0  0  0  0  0  0  0  0  0  0  0  0
   44.5672   11.6581  152.9664 N   0  0  0  0  0  0  0  0  0  0  0  0
   43.6528   13.2079  150.9303 O   0  0  0  0  0  0  0  0  0  0  0  0
   42.4488   11.4899  150.0307 N   0  0  0  0  0  0  0  0  0  0  0  0
   46.8003   10.7341  153.7573 C   0  0  2  0  0  0  0  0  0  0  0  0
   47.9559   10.5700  152.8942 C   0  0  0  0  0  0  0  0  0  0  0  0
   49.1149   11.4454  152.8340 C   0  0  1  0  0  0  0  0  0  0  0  0
   45.7894   11.3449  157.0460 C   0  0  0  0  0  0  0  0  0  0  0  0
   44.7023   11.8839  157.4511 O   0  0  0  0  0  0  0  0  0  0  0  0
   46.8731   10.0760  155.1255 C   0  0  0  0  0  0  0  0  0  0  0  0
   44.5930    9.7393  155.7435 O   0  0  0  0  0  0  0  0  0  0  0  0
   43.2396   11.4071  152.4635 C   0  0  1  0  0  0  0  0  0  0  0  0
   42.2896   12.1571  153.4063 C   0  0  1  0  0  0  0  0  0  0  0  0
   50.3128   11.0420  152.0194 C   0  0  0  0  0  0  0  0  0  0  0  0
   48.6247   12.7314  152.0994 C   0  0  0  0  0  0  0  0  0  0  0  0
   42.7811   13.5840  153.5684 C   0  0  0  0  0  0  0  0  0  0  0  0
   40.8911   12.2151  152.8561 C   0  0  0  0  0  0  0  0  0  0  0  0
   42.2613   11.4513  154.7344 C   0  0  0  0  0  0  0  0  0  0  0  0
   42.3717   12.1122  148.7222 C   0  0  0  0  0  0  0  0  0  0  0  0
  1  3  2  0
  1  5  1  0
  4  6  2  0
  4  7  1  0
  1  8  1  0
  8  9  1  6
  9 10  1  0
  2 11  1  0
 11 12  2  0
  8 13  1  0
  2 13  1  0
  2 14  1  0
  4 15  1  0
 15  5  1  1
 15 16  1  0
 10 17  1  6
 10 18  1  0
 16 19  1  1
 16 20  1  0
 16 21  1  0
  7 22  1  0
M  END
$$$$
