1GKC_NFH_A_1448
     RDKit          3D

 22 21  0  0  0  0  0  0  0  0999 V2000
   58.8914   31.7711  131.7668 C   0  0  0  0  0  0  0  0  0  0  0  0
   59.2135   32.9103  128.7197 N   0  0  0  0  0  0  0  0  0  0  0  0
   59.7735   32.5814  132.1574 O   0  0  0  0  0  0  0  0  0  0  0  0
   58.7218   30.9603  134.9347 C   0  0  0  0  0  0  0  0  0  0  0  0
   57.8966   31.4759  132.7776 N   0  0  0  0  0  0  0  0  0  0  0  0
   58.1993   29.8147  135.0598 O   0  0  0  0  0  0  0  0  0  0  0  0
   59.9468   31.1710  135.6229 N   0  0  0  0  0  0  0  0  0  0  0  0
   58.8291   31.1555  130.4336 C   0  0  2  0  0  0  0  0  0  0  0  0
   59.9437   30.3693  129.9368 C   0  0  0  0  0  0  0  0  0  0  0  0
   59.8865   29.3639  128.8884 C   0  0  1  0  0  0  0  0  0  0  0  0
   60.5793   33.0439  129.0412 C   0  0  0  0  0  0  0  0  0  0  0  0
   61.3205   33.8489  128.3785 O   0  0  0  0  0  0  0  0  0  0  0  0
   58.2295   32.1698  129.4735 C   0  0  0  0  0  0  0  0  0  0  0  0
   58.7495   33.5341  127.5861 O   0  0  0  0  0  0  0  0  0  0  0  0
   58.0666   32.0133  134.1045 C   0  0  1  0  0  0  0  0  0  0  0  0
   56.6495   32.1923  134.6647 C   0  0  1  0  0  0  0  0  0  0  0  0
   61.1051   28.5389  128.5789 C   0  0  0  0  0  0  0  0  0  0  0  0
   58.8736   28.2921  129.3973 C   0  0  0  0  0  0  0  0  0  0  0  0
   55.8946   30.8832  134.5232 C   0  0  0  0  0  0  0  0  0  0  0  0
   56.6700   32.5526  136.1247 C   0  0  0  0  0  0  0  0  0  0  0  0
   55.9577   33.2892  133.9023 C   0  0  0  0  0  0  0  0  0  0  0  0
   60.6062   30.1436  136.4070 C   0  0  0  0  0  0  0  0  0  0  0  0
  1  3  2  0
  1  5  1  0
  4  6  2  0
  4  7  1  0
  1  8  1  0
  8  9  1  6
  9 10  1  0
  2 11  1  0
 11 12  2  0
  8 13  1  0
  2 13  1  0
  2 14  1  0
  4 15  1  0
 15  5  1  6
 15 16  1  0
 10 17  1  1
 10 18  1  0
 16 19  1  1
 16 20  1  0
 16 21  1  0
  7 22  1  0
M  END
$$$$
