1GKC_NFH_A_1448
     RDKit          3D

 22 21  0  0  0  0  0  0  0  0999 V2000
   42.2301    1.1133  152.2891 C   0  0  0  0  0  0  0  0  0  0  0  0
   40.9945   -2.0646  151.6716 N   0  0  0  0  0  0  0  0  0  0  0  0
   42.0692    1.9962  151.4047 O   0  0  0  0  0  0  0  0  0  0  0  0
   42.1942    3.7919  154.4407 C   0  0  0  0  0  0  0  0  0  0  0  0
   41.9398    1.5839  153.6280 N   0  0  0  0  0  0  0  0  0  0  0  0
   43.1030    3.3776  155.2177 O   0  0  0  0  0  0  0  0  0  0  0  0
   42.1388    5.1959  154.2305 N   0  0  0  0  0  0  0  0  0  0  0  0
   42.6675   -0.2684  152.0451 C   0  0  2  0  0  0  0  0  0  0  0  0
   44.0694   -0.5625  151.8101 C   0  0  0  0  0  0  0  0  0  0  0  0
   45.2016    0.0589  152.4774 C   0  0  1  0  0  0  0  0  0  0  0  0
   41.1122   -3.3996  151.2350 C   0  0  0  0  0  0  0  0  0  0  0  0
   40.3873   -4.3141  151.7590 O   0  0  0  0  0  0  0  0  0  0  0  0
   41.6677   -0.9202  151.1040 C   0  0  0  0  0  0  0  0  0  0  0  0
   40.1671   -1.8007  152.7371 O   0  0  0  0  0  0  0  0  0  0  0  0
   41.2466    2.8371  153.7943 C   0  0  1  0  0  0  0  0  0  0  0  0
   40.1356    2.5646  154.8167 C   0  0  1  0  0  0  0  0  0  0  0  0
   46.6014   -0.3306  152.0900 C   0  0  0  0  0  0  0  0  0  0  0  0
   45.1458    1.5644  152.0720 C   0  0  0  0  0  0  0  0  0  0  0  0
   39.4487    3.8741  155.1588 C   0  0  0  0  0  0  0  0  0  0  0  0
   39.0921    1.6306  154.2683 C   0  0  0  0  0  0  0  0  0  0  0  0
   40.7438    1.9470  156.0462 C   0  0  0  0  0  0  0  0  0  0  0  0
   43.0669    6.1294  154.8408 C   0  0  0  0  0  0  0  0  0  0  0  0
  1  3  2  0
  1  5  1  0
  4  6  2  0
  4  7  1  0
  1  8  1  0
  8  9  1  6
  9 10  1  0
  2 11  1  0
 11 12  2  0
  8 13  1  0
  2 13  1  0
  2 14  1  0
  4 15  1  0
 15  5  1  1
 15 16  1  0
 10 17  1  6
 10 18  1  0
 16 19  1  1
 16 20  1  0
 16 21  1  0
  7 22  1  0
M  END
$$$$
