1GKC_NFH_A_1448
     RDKit          3D

 22 21  0  0  0  0  0  0  0  0999 V2000
   56.3524   27.1096   94.5052 C   0  0  0  0  0  0  0  0  0  0  0  0
   54.2994   24.7426   93.5737 N   0  0  0  0  0  0  0  0  0  0  0  0
   57.1809   26.5529   95.2741 O   0  0  0  0  0  0  0  0  0  0  0  0
   58.7187   29.5610   93.3763 C   0  0  0  0  0  0  0  0  0  0  0  0
   56.9741   27.9683   93.5181 N   0  0  0  0  0  0  0  0  0  0  0  0
   58.1675   30.2575   92.4750 O   0  0  0  0  0  0  0  0  0  0  0  0
   59.6316   30.2412   94.2262 N   0  0  0  0  0  0  0  0  0  0  0  0
   54.8932   26.9427   94.5593 C   0  0  2  0  0  0  0  0  0  0  0  0
   54.0737   27.8921   95.2903 C   0  0  0  0  0  0  0  0  0  0  0  0
   52.6750   28.1953   95.0353 C   0  0  1  0  0  0  0  0  0  0  0  0
   54.2899   25.2725   92.2676 C   0  0  0  0  0  0  0  0  0  0  0  0
   54.1721   24.4949   91.2587 O   0  0  0  0  0  0  0  0  0  0  0  0
   54.5952   25.4696   94.7857 C   0  0  0  0  0  0  0  0  0  0  0  0
   54.0029   23.4103   93.7358 O   0  0  0  0  0  0  0  0  0  0  0  0
   58.4090   28.1077   93.5164 C   0  0  1  0  0  0  0  0  0  0  0  0
   58.8903   27.4321   92.2257 C   0  0  1  0  0  0  0  0  0  0  0  0
   51.9295   29.1133   95.9641 C   0  0  0  0  0  0  0  0  0  0  0  0
   52.6618   28.9899   93.6928 C   0  0  0  0  0  0  0  0  0  0  0  0
   60.3718   27.7098   92.0469 C   0  0  0  0  0  0  0  0  0  0  0  0
   58.7078   25.9401   92.2776 C   0  0  0  0  0  0  0  0  0  0  0  0
   58.1039   27.9786   91.0656 C   0  0  0  0  0  0  0  0  0  0  0  0
   59.8780   31.6690   94.1495 C   0  0  0  0  0  0  0  0  0  0  0  0
  1  3  2  0
  1  5  1  0
  4  6  2  0
  4  7  1  0
  1  8  1  0
  8  9  1  1
  9 10  1  0
  2 11  1  0
 11 12  2  0
  8 13  1  0
  2 13  1  0
  2 14  1  0
  4 15  1  0
 15  5  1  6
 15 16  1  0
 10 17  1  1
 10 18  1  0
 16 19  1  6
 16 20  1  0
 16 21  1  0
  7 22  1  0
M  END
$$$$
