1GKC_NFH_A_1448
     RDKit          3D

 22 21  0  0  0  0  0  0  0  0999 V2000
   58.1779   12.7581  159.7896 C   0  0  0  0  0  0  0  0  0  0  0  0
   58.3068   14.9625  162.0839 N   0  0  0  0  0  0  0  0  0  0  0  0
   59.3112   12.2244  159.6546 O   0  0  0  0  0  0  0  0  0  0  0  0
   57.4450    9.8734  158.6527 C   0  0  0  0  0  0  0  0  0  0  0  0
   57.1123   11.7974  159.9897 N   0  0  0  0  0  0  0  0  0  0  0  0
   56.5133   10.1645  157.8475 O   0  0  0  0  0  0  0  0  0  0  0  0
   58.4749    9.0361  158.1461 N   0  0  0  0  0  0  0  0  0  0  0  0
   57.9056   14.2019  159.7547 C   0  0  2  0  0  0  0  0  0  0  0  0
   57.6971   14.8779  158.4870 C   0  0  0  0  0  0  0  0  0  0  0  0
   57.1791   16.2239  158.3058 C   0  0  1  0  0  0  0  0  0  0  0  0
   57.1166   14.3638  162.5439 C   0  0  0  0  0  0  0  0  0  0  0  0
   56.8274   14.3815  163.7899 O   0  0  0  0  0  0  0  0  0  0  0  0
   58.8382   14.8817  160.7438 C   0  0  0  0  0  0  0  0  0  0  0  0
   59.0503   15.6978  162.9760 O   0  0  0  0  0  0  0  0  0  0  0  0
   57.4377   10.3943  160.0513 C   0  0  1  0  0  0  0  0  0  0  0  0
   56.2538    9.7243  160.7608 C   0  0  1  0  0  0  0  0  0  0  0  0
   57.2335   16.8675  156.9478 C   0  0  0  0  0  0  0  0  0  0  0  0
   55.6448   16.1158  158.5668 C   0  0  0  0  0  0  0  0  0  0  0  0
   54.9710   10.1019  160.0428 C   0  0  0  0  0  0  0  0  0  0  0  0
   56.3670    8.2247  160.7362 C   0  0  0  0  0  0  0  0  0  0  0  0
   56.2169   10.1861  162.1920 C   0  0  0  0  0  0  0  0  0  0  0  0
   58.5218    8.5750  156.7712 C   0  0  0  0  0  0  0  0  0  0  0  0
  1  3  2  0
  1  5  1  0
  4  6  2  0
  4  7  1  0
  1  8  1  0
  8  9  1  6
  9 10  1  0
  2 11  1  0
 11 12  2  0
  8 13  1  0
  2 13  1  0
  2 14  1  0
  4 15  1  0
 15  5  1  6
 15 16  1  0
 10 17  1  6
 10 18  1  0
 16 19  1  6
 16 20  1  0
 16 21  1  0
  7 22  1  0
M  END
$$$$
