7R7R_AWJ_A_1501
     RDKit          3D

 33 36  0  0  0  0  0  0  0  0999 V2000
   29.9700   44.7186    9.1949 C   0  0  0  0  0  0  0  0  0  0  0  0
   28.8900   44.3798    9.9887 C   0  0  0  0  0  0  0  0  0  0  0  0
   27.8381   45.2082   10.0807 N   0  0  0  0  0  0  0  0  0  0  0  0
   27.7820   46.3895    9.4173 C   0  0  0  0  0  0  0  0  0  0  0  0
   28.8429   46.7900    8.5983 C   0  0  0  0  0  0  0  0  0  0  0  0
   29.8936   45.9215    8.5297 C   0  0  0  0  0  0  0  0  0  0  0  0
   31.0149   43.8598    9.1209 O   0  0  0  0  0  0  0  0  0  0  0  0
   28.8210   43.1663   10.7253 N   0  0  0  0  0  0  0  0  0  0  0  0
   32.2872   43.9884    8.6238 C   0  0  1  0  0  0  0  0  0  0  0  0
   33.1810   44.9675    9.2625 C   0  0  0  0  0  0  0  0  0  0  0  0
   33.0455   42.6751    8.5249 C   0  0  0  0  0  0  0  0  0  0  0  0
   33.7496   46.0452    8.6395 C   0  0  0  0  0  0  0  0  0  0  0  0
   34.5622   46.9232    9.3591 C   0  0  0  0  0  0  0  0  0  0  0  0
   34.8270   46.7528   10.7013 C   0  0  0  0  0  0  0  0  0  0  0  0
   34.2554   45.6681   11.3300 C   0  0  0  0  0  0  0  0  0  0  0  0
   33.4581   44.8102   10.6157 C   0  0  0  0  0  0  0  0  0  0  0  0
   34.5243   45.5090   12.6555 F   0  0  0  0  0  0  0  0  0  0  0  0
   33.5860   46.3488    7.2626 N   0  0  0  0  0  0  0  0  0  0  0  0
   32.6576   47.1725    6.6216 N   0  0  0  0  0  0  0  0  0  0  0  0
   32.9797   47.1362    5.2176 C   0  0  0  0  0  0  0  0  0  0  0  0
   34.0251   46.3498    5.0196 C   0  0  0  0  0  0  0  0  0  0  0  0
   34.4369   45.8349    6.2755 N   0  0  0  0  0  0  0  0  0  0  0  0
   28.7165   48.0439    7.9251 C   0  0  0  0  0  0  0  0  0  0  0  0
   27.7382   48.9652    7.6759 C   0  0  0  0  0  0  0  0  0  0  0  0
   28.1334   49.9987    6.9599 N   0  0  0  0  0  0  0  0  0  0  0  0
   29.1428   50.2684    6.5077 C   0  0  0  0  0  0  0  0  0  0  0  0
   30.1973   48.8007    7.0528 S   0  0  0  0  0  0  0  0  0  0  0  0
   26.3319   48.7862    8.1786 C   0  0  0  0  0  0  0  0  0  0  0  0
   29.9331   51.2805    5.6802 C   0  0  1  0  0  0  0  0  0  0  0  0
   30.2265   52.3947    6.6503 C   0  0  0  0  0  0  0  0  0  0  0  0
   31.1284   50.7488    5.2404 O   0  0  0  0  0  0  0  0  0  0  0  0
   29.0906   51.8230    4.5457 C   0  0  0  0  0  0  0  0  0  0  0  0
   31.1870   51.9097    7.5343 O   0  0  0  0  0  0  0  0  0  0  0  0
  1  2  2  0
  2  3  1  0
  3  4  2  0
  4  5  1  0
  1  6  1  0
  5  6  2  0
  1  7  1  0
  2  8  1  0
  7  9  1  0
  9 10  1  0
  9 11  1  1
 10 12  1  0
 12 13  2  0
 13 14  1  0
 14 15  2  0
 10 16  2  0
 15 16  1  0
 15 17  1  0
 12 18  1  0
 18 19  1  0
 19 20  1  0
 20 21  2  0
 18 22  1  0
 21 22  1  0
  5 23  1  0
 23 24  2  0
 24 25  1  0
 25 26  2  0
 23 27  1  0
 26 27  1  0
 24 28  1  0
 26 29  1  0
 29 30  1  0
 29 31  1  0
 29 32  1  6
 30 33  1  0
M  END
$$$$
