
     RDKit          3D

 15 15  0  0  0  0  0  0  0  0999 V2000
    4.9561  -18.6713   29.6908 C   0  0  0  0  0  0  0  0  0  0  0  0
    6.0537  -17.9530   29.3932 C   0  0  0  0  0  0  0  0  0  0  0  0
    5.3268  -17.0374   27.3212 C   0  0  0  0  0  0  0  0  0  0  0  0
    4.3747  -16.0449   27.0878 C   0  0  0  0  0  0  0  0  0  0  0  0
    3.5480  -16.1233   25.9674 C   0  0  0  0  0  0  0  0  0  0  0  0
    3.6637  -17.2034   25.0894 C   0  0  0  0  0  0  0  0  0  0  0  0
    4.6038  -18.2133   25.3366 C   0  0  0  0  0  0  0  0  0  0  0  0
    4.7527  -19.3849   24.4408 C   0  0  0  0  0  0  0  0  0  0  0  0
    5.4331  -18.1327   26.4618 C   0  0  0  0  0  0  0  0  0  0  0  0
    7.3359  -18.3527   30.0333 C   0  0  0  0  0  0  0  0  0  0  0  0
    6.0883  -16.9240   28.4596 O   0  0  0  0  0  0  0  0  0  0  0  0
    3.5758  -19.9497   24.1186 O   0  0  0  0  0  0  0  0  0  0  0  0
    5.8033  -19.8261   24.0138 O   0  0  0  0  0  0  0  0  0  0  0  0
    7.6789  -19.4817   30.3393 O   0  0  0  0  0  0  0  0  0  0  0  0
    8.1362  -17.2970   30.2680 O   0  0  0  0  0  0  0  0  0  0  0  0
  1  2  2  0
  3  4  4  0
  4  5  4  0
  5  6  4  0
  6  7  4  0
  7  8  1  0
  3  9  4  0
  7  9  4  0
  2 10  1  0
  2 11  1  0
  3 11  1  0
  8 12  1  0
  8 13  2  0
 10 14  2  0
 10 15  1  0
M  END
