7ZF0_DHR_A_508
     RDKit          3D

 11 11  0  0  0  0  0  0  0  0999 V2000
   37.0340   52.9424   54.3807 N   0  0  0  0  0  0  0  0  0  0  0  0
   36.1167   53.0275   53.7095 C   0  0  0  0  0  0  0  0  0  0  0  0
   33.6826   52.6629   53.6236 C   0  0  0  0  0  0  0  0  0  0  0  0
   32.4947   53.3337   53.4588 C   0  0  0  0  0  0  0  0  0  0  0  0
   33.7680   51.6179   54.5296 C   0  0  0  0  0  0  0  0  0  0  0  0
   32.6786   51.2234   55.2658 C   0  0  0  0  0  0  0  0  0  0  0  0
   31.4119   52.9509   54.1927 C   0  0  0  0  0  0  0  0  0  0  0  0
   31.4736   51.8965   55.0925 C   0  0  0  0  0  0  0  0  0  0  0  0
   30.3639   51.5279   55.8230 O   0  0  0  0  0  0  0  0  0  0  0  0
   34.8851   53.1010   52.7981 C   0  0  2  0  0  0  0  0  0  0  0  0
   35.1146   52.2879   51.6654 O   0  0  0  0  0  0  0  0  0  0  0  0
  1  2  3  0
  3  4  2  0
  3  5  1  0
  5  6  2  0
  4  7  1  0
  6  8  1  0
  7  8  2  0
  8  9  1  0
  2 10  1  0
  3 10  1  0
 10 11  1  6
M  END
