7OCB_V88_B_301
     RDKit          3D

 88 92  0  0  0  0  0  0  0  0999 V2000
  -11.6409  -34.7504   -5.7296 N   0  0  0  0  0  0  0  0  0  0  0  0
   -5.4962  -36.8590  -11.3445 N   0  0  0  0  0  0  0  0  0  0  0  0
   -7.5925  -36.0147   -8.6514 C   0  0  0  0  0  0  0  0  0  0  0  0
   -9.5079  -34.9228   -7.3922 C   0  0  1  0  0  0  0  0  0  0  0  0
   -9.3715  -33.9341   -6.2545 C   0  0  0  0  0  0  0  0  0  0  0  0
  -10.7351  -33.5929   -5.6865 C   0  0  0  0  0  0  0  0  0  0  0  0
  -12.7838  -34.5982   -4.8021 C   0  0  2  0  0  0  0  0  0  0  0  0
  -13.7734  -33.5263   -5.2616 C   0  0  0  0  0  0  0  0  0  0  0  0
   -6.2304  -36.9884  -10.2207 C   0  0  0  0  0  0  0  0  0  0  0  0
   -5.0302  -34.8007  -12.5832 C   0  0  0  0  0  0  0  0  0  0  0  0
   -3.3781  -36.4159  -11.8446 C   0  0  0  0  0  0  0  0  0  0  0  0
   -7.4710  -39.6962   -6.5753 C   0  0  0  0  0  0  0  0  0  0  0  0
   -8.6371  -41.2213   -5.1484 C   0  0  0  0  0  0  0  0  0  0  0  0
   -9.7367  -40.8262   -6.0927 C   0  0  0  0  0  0  0  0  0  0  0  0
   -9.5969  -36.9276   -6.2683 C   0  0  0  0  0  0  0  0  0  0  0  0
  -10.8406  -34.6573   -5.9427 C   0  0  0  0  0  0  0  0  0  0  0  0
  -13.1660  -34.7805   -5.3951 C   0  0  0  0  0  0  0  0  0  0  0  0
   -8.2646  -34.9147   -8.1611 N   0  0  0  0  0  0  0  0  0  0  0  0
   -8.3253  -38.5545   -3.6463 C   0  0  0  0  0  0  0  0  0  0  0  0
   -8.9092  -38.9910   -4.8895 O   0  0  0  0  0  0  0  0  0  0  0  0
   -8.2631  -38.6600   -6.0455 C   0  0  0  0  0  0  0  0  0  0  0  0
  -10.8971  -36.0214   -5.6338 C   0  0  0  0  0  0  0  0  0  0  0  0
   -9.9616  -36.2461   -6.8470 C   0  0  0  0  0  0  0  0  0  0  0  0
   -5.8819  -36.0263  -12.4767 C   0  0  0  0  0  0  0  0  0  0  0  0
   -2.6592  -34.3493  -12.7906 C   0  0  0  0  0  0  0  0  0  0  0  0
   -6.9291  -38.3308   -8.4858 C   0  0  0  0  0  0  0  0  0  0  0  0
   -6.8197  -39.5387   -7.7637 C   0  0  0  0  0  0  0  0  0  0  0  0
   -8.3688  -37.4668   -6.7039 C   0  0  0  0  0  0  0  0  0  0  0  0
   -9.5233  -39.4612   -6.6797 C   0  0  0  0  0  0  0  0  0  0  0  0
  -10.7727  -36.0429   -5.9710 C   0  0  0  0  0  0  0  0  0  0  0  0
  -12.0365  -34.0328   -5.6529 C   0  0  0  0  0  0  0  0  0  0  0  0
  -13.1077  -36.1643   -5.4094 C   0  0  0  0  0  0  0  0  0  0  0  0
   -7.6910  -37.2697   -7.9464 C   0  0  0  0  0  0  0  0  0  0  0  0
  -11.9065  -36.8000   -5.6999 C   0  0  0  0  0  0  0  0  0  0  0  0
  -11.6234  -38.2650   -5.8320 C   0  0  0  0  0  0  0  0  0  0  0  0
  -12.3006  -34.3353   -3.3855 C   0  0  0  0  0  0  0  0  0  0  0  0
   -6.8474  -35.8850   -9.7568 N   0  0  0  0  0  0  0  0  0  0  0  0
   -3.7027  -34.9890  -11.9936 N   0  0  0  0  0  0  0  0  0  0  0  0
   -6.2424  -38.2087   -9.6603 N   0  0  0  0  0  0  0  0  0  0  0  0
  -10.1270  -38.3390   -5.9474 N   0  0  0  0  0  0  0  0  0  0  0  0
   -7.4231  -40.7839   -5.7639 O   0  0  0  0  0  0  0  0  0  0  0  0
   -4.6489  -37.3568  -11.4036 H   0  0  0  0  0  0  0  0  0  0  0  0
  -10.2698  -34.6572   -8.0950 H   0  0  0  0  0  0  0  0  0  0  0  0
   -8.9068  -33.0410   -6.6168 H   0  0  0  0  0  0  0  0  0  0  0  0
   -8.7732  -34.3720   -5.4831 H   0  0  0  0  0  0  0  0  0  0  0  0
  -10.6200  -33.2790   -4.6702 H   0  0  0  0  0  0  0  0  0  0  0  0
  -11.1605  -32.8110   -6.2804 H   0  0  0  0  0  0  0  0  0  0  0  0
  -13.3170  -35.5258   -4.8080 H   0  0  0  0  0  0  0  0  0  0  0  0
  -13.2870  -32.5733   -5.2733 H   0  0  0  0  0  0  0  0  0  0  0  0
  -14.6036  -33.4948   -4.5872 H   0  0  0  0  0  0  0  0  0  0  0  0
  -14.1220  -33.7611   -6.2455 H   0  0  0  0  0  0  0  0  0  0  0  0
   -5.5206  -33.9965  -12.0754 H   0  0  0  0  0  0  0  0  0  0  0  0
   -4.8973  -34.5856  -13.6229 H   0  0  0  0  0  0  0  0  0  0  0  0
   -2.4045  -36.5169  -11.4123 H   0  0  0  0  0  0  0  0  0  0  0  0
   -3.3926  -36.8871  -12.8051 H   0  0  0  0  0  0  0  0  0  0  0  0
   -4.1012  -36.8815  -11.2080 H   0  0  0  0  0  0  0  0  0  0  0  0
   -8.6252  -42.2826   -5.0126 H   0  0  0  0  0  0  0  0  0  0  0  0
   -8.7701  -40.7828   -4.1815 H   0  0  0  0  0  0  0  0  0  0  0  0
  -10.6649  -40.8301   -5.5603 H   0  0  0  0  0  0  0  0  0  0  0  0
   -9.7440  -41.5305   -6.8982 H   0  0  0  0  0  0  0  0  0  0  0  0
   -8.7633  -36.6801   -5.6448 H   0  0  0  0  0  0  0  0  0  0  0  0
   -9.2430  -36.8311   -7.2735 H   0  0  0  0  0  0  0  0  0  0  0  0
   -9.9978  -34.0946   -6.1382 H   0  0  0  0  0  0  0  0  0  0  0  0
  -14.0596  -34.3066   -5.1904 H   0  0  0  0  0  0  0  0  0  0  0  0
   -7.8663  -34.0339   -8.3478 H   0  0  0  0  0  0  0  0  0  0  0  0
   -8.9351  -38.8834   -2.8309 H   0  0  0  0  0  0  0  0  0  0  0  0
   -8.2633  -37.4864   -3.6370 H   0  0  0  0  0  0  0  0  0  0  0  0
   -7.3440  -38.9696   -3.5479 H   0  0  0  0  0  0  0  0  0  0  0  0
  -11.5985  -36.8280   -5.5858 H   0  0  0  0  0  0  0  0  0  0  0  0
  -10.2893  -35.9801   -4.7542 H   0  0  0  0  0  0  0  0  0  0  0  0
   -9.1091  -36.8139   -6.5377 H   0  0  0  0  0  0  0  0  0  0  0  0
  -10.4926  -36.7782   -7.6085 H   0  0  0  0  0  0  0  0  0  0  0  0
   -5.7809  -36.5970  -13.3762 H   0  0  0  0  0  0  0  0  0  0  0  0
   -6.8948  -35.7146  -12.3295 H   0  0  0  0  0  0  0  0  0  0  0  0
   -1.7080  -34.5097  -12.3275 H   0  0  0  0  0  0  0  0  0  0  0  0
   -2.8524  -33.2988  -12.8540 H   0  0  0  0  0  0  0  0  0  0  0  0
   -2.6527  -34.7709  -13.7741 H   0  0  0  0  0  0  0  0  0  0  0  0
   -6.2427  -40.3085   -8.1374 H   0  0  0  0  0  0  0  0  0  0  0  0
   -8.9395  -36.7063   -6.3026 H   0  0  0  0  0  0  0  0  0  0  0  0
   -9.9319  -39.4634   -7.6686 H   0  0  0  0  0  0  0  0  0  0  0  0
   -8.4672  -39.2942   -6.6402 H   0  0  0  0  0  0  0  0  0  0  0  0
  -12.0858  -33.0022   -5.6290 H   0  0  0  0  0  0  0  0  0  0  0  0
  -13.9526  -36.7208   -5.2052 H   0  0  0  0  0  0  0  0  0  0  0  0
  -12.0923  -38.6654   -6.7065 H   0  0  0  0  0  0  0  0  0  0  0  0
  -12.0007  -38.8327   -5.0071 H   0  0  0  0  0  0  0  0  0  0  0  0
  -11.7637  -33.4102   -3.3578 H   0  0  0  0  0  0  0  0  0  0  0  0
  -11.6563  -35.1311   -3.0750 H   0  0  0  0  0  0  0  0  0  0  0  0
  -13.1417  -34.2794   -2.7264 H   0  0  0  0  0  0  0  0  0  0  0  0
  4  5  1  0
  1  6  1  0
  5  6  1  0
  1  7  1  0
  7  8  1  0
  2  9  1  0
 13 14  1  0
  4 18  1  0
  3 18  1  0
 19 20  1  0
 12 21  4  0
 20 21  1  0
  1 22  1  0
  4 23  1  0
 22 23  1  0
 10 24  1  0
  2 24  1  0
 26 27  4  0
 12 27  4  0
 21 28  4  0
 14 29  1  0
 15 30  1  0
 16 30  4  0
 17 31  4  0
 16 31  4  0
 17 32  4  0
  3 33  4  0
 26 33  4  0
 28 33  4  0
 32 34  4  0
 30 34  4  0
 34 35  1  0
  7 36  1  0
  9 37  4  0
  3 37  4  0
 25 38  1  0
 11 38  1  0
 10 38  1  0
  9 39  4  0
 26 39  4  0
 35 40  1  0
 29 40  1  0
 15 40  1  0
 12 41  1  0
 13 41  1  0
  2 42  1  0
  4 43  1  6
  5 44  1  0
  5 45  1  0
  6 46  1  0
  6 47  1  0
  7 48  1  1
  8 49  1  0
  8 50  1  0
  8 51  1  0
 10 52  1  0
 10 53  1  0
 11 54  1  0
 11 55  1  0
 11 56  1  0
 13 57  1  0
 13 58  1  0
 14 59  1  0
 14 60  1  0
 15 61  1  0
 15 62  1  0
 16 63  1  0
 17 64  1  0
 18 65  1  0
 19 66  1  0
 19 67  1  0
 19 68  1  0
 22 69  1  0
 22 70  1  0
 23 71  1  0
 23 72  1  0
 24 73  1  0
 24 74  1  0
 25 75  1  0
 25 76  1  0
 25 77  1  0
 27 78  1  0
 28 79  1  0
 29 80  1  0
 29 81  1  0
 31 82  1  0
 32 83  1  0
 35 84  1  0
 35 85  1  0
 36 86  1  0
 36 87  1  0
 36 88  1  0
M  END
