1XOQ_ROF_B_501
     RDKit          3D

 26 28  0  0  0  0  0  0  0  0999 V2000
   14.1573   25.9443   55.0993 O   0  0  0  0  0  0  0  0  0  0  0  0
   12.5174   33.7628   49.9143 C   0  0  0  0  0  0  0  0  0  0  0  0
   14.0150   33.6968   49.7351 C   0  0  0  0  0  0  0  0  0  0  0  0
   13.2817   32.4724   50.0253 C   0  0  1  0  0  0  0  0  0  0  0  0
   14.2131   27.1750   54.8167 C   0  0  0  0  0  0  0  0  0  0  0  0
   14.0225   27.5862   53.4312 C   0  0  0  0  0  0  0  0  0  0  0  0
   14.0388   26.6280   52.4480 C   0  0  0  0  0  0  0  0  0  0  0  0
   13.8658   26.9438   51.1216 C   0  0  0  0  0  0  0  0  0  0  0  0
   13.6680   28.2489   50.7331 C   0  0  0  0  0  0  0  0  0  0  0  0
   13.4857   28.6815   49.4546 O   0  0  0  0  0  0  0  0  0  0  0  0
   13.4805   27.8604   48.3428 C   0  0  2  0  0  0  0  0  0  0  0  0
   12.3573   27.0285   48.4430 F   0  0  0  0  0  0  0  0  0  0  0  0
   14.6225   27.0765   48.2396 F   0  0  0  0  0  0  0  0  0  0  0  0
   13.6432   29.2815   51.7224 C   0  0  0  0  0  0  0  0  0  0  0  0
   13.4590   30.4931   51.3666 O   0  0  0  0  0  0  0  0  0  0  0  0
   13.2416   31.7913   51.3720 C   0  0  0  0  0  0  0  0  0  0  0  0
   13.8260   28.8883   53.0503 C   0  0  0  0  0  0  0  0  0  0  0  0
   14.4591   28.0656   55.8817 N   0  0  0  0  0  0  0  0  0  0  0  0
   14.4567   27.5608   57.1983 C   0  0  0  0  0  0  0  0  0  0  0  0
   13.4155   27.7115   58.0789 C   0  0  0  0  0  0  0  0  0  0  0  0
   11.9918   28.5821   57.5538 Cl  0  0  0  0  0  0  0  0  0  0  0  0
   13.4535   27.2014   59.3601 C   0  0  0  0  0  0  0  0  0  0  0  0
   14.5578   26.5328   59.7500 N   0  0  0  0  0  0  0  0  0  0  0  0
   15.6094   26.3506   58.9388 C   0  0  0  0  0  0  0  0  0  0  0  0
   15.5723   26.8637   57.6487 C   0  0  0  0  0  0  0  0  0  0  0  0
   16.9635   26.6146   56.5963 Cl  0  0  0  0  0  0  0  0  0  0  0  0
  2  3  1  0
  2  4  1  0
  3  4  1  0
  1  5  2  0
  5  6  1  0
  6  7  2  0
  7  8  1  0
  8  9  2  0
  9 10  1  0
 10 11  1  0
 11 12  1  1
 11 13  1  0
  9 14  1  0
 14 15  1  0
  4 16  1  1
 15 16  1  0
  6 17  1  0
 14 17  2  0
  5 18  1  0
 18 19  1  0
 19 20  2  0
 20 21  1  0
 20 22  1  0
 22 23  2  0
 23 24  1  0
 19 25  1  0
 24 25  2  0
 25 26  1  0
M  END
$$$$
