1XOQ_ROF_B_501
     RDKit          3D

 26 28  0  0  0  0  0  0  0  0999 V2000
   14.3915   29.8517   56.4891 O   0  0  0  0  0  0  0  0  0  0  0  0
   14.4503   26.6308   49.8604 C   0  0  0  0  0  0  0  0  0  0  0  0
   13.9844   26.6422   48.4244 C   0  0  0  0  0  0  0  0  0  0  0  0
   14.2609   27.9081   49.0894 C   0  0  1  0  0  0  0  0  0  0  0  0
   14.1707   29.2317   55.4100 C   0  0  0  0  0  0  0  0  0  0  0  0
   14.0017   29.9987   54.1819 C   0  0  0  0  0  0  0  0  0  0  0  0
   13.9769   31.3695   54.2555 C   0  0  0  0  0  0  0  0  0  0  0  0
   13.8210   32.1552   53.1386 C   0  0  0  0  0  0  0  0  0  0  0  0
   13.6833   31.5834   51.8946 C   0  0  0  0  0  0  0  0  0  0  0  0
   13.5233   32.2561   50.7211 O   0  0  0  0  0  0  0  0  0  0  0  0
   13.5059   33.6331   50.6033 C   0  0  2  0  0  0  0  0  0  0  0  0
   14.7115   34.1130   51.1321 F   0  0  0  0  0  0  0  0  0  0  0  0
   12.4440   34.2237   51.2765 F   0  0  0  0  0  0  0  0  0  0  0  0
   13.7031   30.1589   51.7687 C   0  0  0  0  0  0  0  0  0  0  0  0
   13.5767   29.6247   50.6168 O   0  0  0  0  0  0  0  0  0  0  0  0
   13.2075   28.8517   49.6174 C   0  0  0  0  0  0  0  0  0  0  0  0
   13.8648   29.4233   52.9452 C   0  0  0  0  0  0  0  0  0  0  0  0
   14.1045   27.8252   55.4821 N   0  0  0  0  0  0  0  0  0  0  0  0
   14.2168   27.2078   56.7449 C   0  0  0  0  0  0  0  0  0  0  0  0
   13.3216   27.3825   57.7697 C   0  0  0  0  0  0  0  0  0  0  0  0
   11.9471   28.4339   57.5132 Cl  0  0  0  0  0  0  0  0  0  0  0  0
   13.4684   26.7590   58.9916 C   0  0  0  0  0  0  0  0  0  0  0  0
   14.5331   25.9516   59.1739 N   0  0  0  0  0  0  0  0  0  0  0  0
   15.4440   25.7385   58.2138 C   0  0  0  0  0  0  0  0  0  0  0  0
   15.2971   26.3657   56.9833 C   0  0  0  0  0  0  0  0  0  0  0  0
   16.5041   26.0739   55.7330 Cl  0  0  0  0  0  0  0  0  0  0  0  0
  2  3  1  0
  2  4  1  0
  3  4  1  0
  1  5  2  0
  5  6  1  0
  6  7  2  0
  7  8  1  0
  8  9  2  0
  9 10  1  0
 10 11  1  0
 11 12  1  1
 11 13  1  0
  9 14  1  0
 14 15  1  0
  4 16  1  1
 15 16  1  0
  6 17  1  0
 14 17  2  0
  5 18  1  0
 18 19  1  0
 19 20  2  0
 20 21  1  0
 20 22  1  0
 22 23  2  0
 23 24  1  0
 19 25  1  0
 24 25  2  0
 25 26  1  0
M  END
$$$$
