1XOQ_ROF_B_501
     RDKit          3D

 26 28  0  0  0  0  0  0  0  0999 V2000
   13.9380   25.8529   55.0785 O   0  0  0  0  0  0  0  0  0  0  0  0
   12.5869   33.9368   50.8651 C   0  0  0  0  0  0  0  0  0  0  0  0
   13.1540   33.5363   49.5245 C   0  0  0  0  0  0  0  0  0  0  0  0
   12.8441   32.5006   50.5006 C   0  0  1  0  0  0  0  0  0  0  0  0
   14.1865   27.0598   54.7971 C   0  0  0  0  0  0  0  0  0  0  0  0
   14.0528   27.4997   53.4138 C   0  0  0  0  0  0  0  0  0  0  0  0
   14.0088   26.5539   52.4195 C   0  0  0  0  0  0  0  0  0  0  0  0
   13.8839   26.8968   51.0944 C   0  0  0  0  0  0  0  0  0  0  0  0
   13.7977   28.2176   50.7186 C   0  0  0  0  0  0  0  0  0  0  0  0
   13.6721   28.6771   49.4426 O   0  0  0  0  0  0  0  0  0  0  0  0
   13.7780   27.8891   48.3120 C   0  0  2  0  0  0  0  0  0  0  0  0
   12.7660   26.9224   48.3801 F   0  0  0  0  0  0  0  0  0  0  0  0
   15.0093   27.2554   48.2036 F   0  0  0  0  0  0  0  0  0  0  0  0
   13.8391   29.2383   51.7197 C   0  0  0  0  0  0  0  0  0  0  0  0
   13.7585   30.4644   51.3755 O   0  0  0  0  0  0  0  0  0  0  0  0
   13.8672   31.7758   51.3413 C   0  0  0  0  0  0  0  0  0  0  0  0
   13.9675   28.8174   53.0454 C   0  0  0  0  0  0  0  0  0  0  0  0
   14.5796   27.8971   55.8612 N   0  0  0  0  0  0  0  0  0  0  0  0
   14.5535   27.3797   57.1726 C   0  0  0  0  0  0  0  0  0  0  0  0
   13.5763   27.6629   58.0929 C   0  0  0  0  0  0  0  0  0  0  0  0
   12.2713   28.7317   57.6291 Cl  0  0  0  0  0  0  0  0  0  0  0  0
   13.5881   27.1350   59.3675 C   0  0  0  0  0  0  0  0  0  0  0  0
   14.6007   26.3128   59.7099 N   0  0  0  0  0  0  0  0  0  0  0  0
   15.5863   25.9960   58.8583 C   0  0  0  0  0  0  0  0  0  0  0  0
   15.5753   26.5269   57.5749 C   0  0  0  0  0  0  0  0  0  0  0  0
   16.8789   26.0995   56.4690 Cl  0  0  0  0  0  0  0  0  0  0  0  0
  2  3  1  0
  2  4  1  0
  3  4  1  0
  1  5  2  0
  5  6  1  0
  6  7  2  0
  7  8  1  0
  8  9  2  0
  9 10  1  0
 10 11  1  0
 11 12  1  1
 11 13  1  0
  9 14  1  0
 14 15  1  0
  4 16  1  1
 15 16  1  0
  6 17  1  0
 14 17  2  0
  5 18  1  0
 18 19  1  0
 19 20  2  0
 20 21  1  0
 20 22  1  0
 22 23  2  0
 23 24  1  0
 19 25  1  0
 24 25  2  0
 25 26  1  0
M  END
$$$$
