1XOQ_ROF_B_501
     RDKit          3D

 26 28  0  0  0  0  0  0  0  0999 V2000
   14.2864   26.0335   55.0213 O   0  0  0  0  0  0  0  0  0  0  0  0
   13.3803   34.1265   50.9292 C   0  0  0  0  0  0  0  0  0  0  0  0
   14.5015   33.5488   51.7589 C   0  0  0  0  0  0  0  0  0  0  0  0
   13.9170   32.7409   50.6974 C   0  0  1  0  0  0  0  0  0  0  0  0
   14.1929   27.2549   54.7101 C   0  0  0  0  0  0  0  0  0  0  0  0
   14.0655   27.6128   53.3027 C   0  0  0  0  0  0  0  0  0  0  0  0
   14.1912   26.6274   52.3550 C   0  0  0  0  0  0  0  0  0  0  0  0
   14.0826   26.8928   51.0108 C   0  0  0  0  0  0  0  0  0  0  0  0
   13.8410   28.1729   50.5677 C   0  0  0  0  0  0  0  0  0  0  0  0
   13.7142   28.5558   49.2668 O   0  0  0  0  0  0  0  0  0  0  0  0
   13.8731   27.7131   48.1829 C   0  0  2  0  0  0  0  0  0  0  0  0
   12.8543   26.7531   48.2472 F   0  0  0  0  0  0  0  0  0  0  0  0
   15.1052   27.0720   48.1677 F   0  0  0  0  0  0  0  0  0  0  0  0
   13.7026   29.2323   51.5185 C   0  0  0  0  0  0  0  0  0  0  0  0
   13.4775   30.4207   51.1118 O   0  0  0  0  0  0  0  0  0  0  0  0
   12.9435   31.6075   50.9144 C   0  0  0  0  0  0  0  0  0  0  0  0
   13.8248   28.8902   52.8673 C   0  0  0  0  0  0  0  0  0  0  0  0
   14.2198   28.1883   55.7666 N   0  0  0  0  0  0  0  0  0  0  0  0
   14.3703   27.7116   57.0850 C   0  0  0  0  0  0  0  0  0  0  0  0
   15.4057   26.9139   57.5020 C   0  0  0  0  0  0  0  0  0  0  0  0
   16.6266   26.4477   56.3391 Cl  0  0  0  0  0  0  0  0  0  0  0  0
   15.5159   26.4686   58.8031 C   0  0  0  0  0  0  0  0  0  0  0  0
   14.5668   26.8365   59.6877 N   0  0  0  0  0  0  0  0  0  0  0  0
   13.5299   27.6139   59.3449 C   0  0  0  0  0  0  0  0  0  0  0  0
   13.4180   28.0628   58.0353 C   0  0  0  0  0  0  0  0  0  0  0  0
   12.0485   29.0838   57.6027 Cl  0  0  0  0  0  0  0  0  0  0  0  0
  2  3  1  0
  2  4  1  0
  3  4  1  0
  1  5  2  0
  5  6  1  0
  6  7  2  0
  7  8  1  0
  8  9  2  0
  9 10  1  0
 10 11  1  0
 11 12  1  1
 11 13  1  0
  9 14  1  0
 14 15  1  0
  4 16  1  1
 15 16  1  0
  6 17  1  0
 14 17  2  0
  5 18  1  0
 18 19  1  0
 19 20  2  0
 20 21  1  0
 20 22  1  0
 22 23  2  0
 23 24  1  0
 19 25  1  0
 24 25  2  0
 25 26  1  0
M  END
$$$$
