1XOQ_ROF_B_501
     RDKit          3D

 26 28  0  0  0  0  0  0  0  0999 V2000
   22.5653   21.1541   95.2872 O   0  0  0  0  0  0  0  0  0  0  0  0
   24.7490   16.8354   98.7275 C   0  0  0  0  0  0  0  0  0  0  0  0
   26.0486   16.4982   99.4177 C   0  0  0  0  0  0  0  0  0  0  0  0
   25.1857   17.5209   99.9928 C   0  0  1  0  0  0  0  0  0  0  0  0
   21.7893   21.6532   96.1510 C   0  0  0  0  0  0  0  0  0  0  0  0
   22.1214   21.5039   97.5625 C   0  0  0  0  0  0  0  0  0  0  0  0
   21.4116   22.2260   98.4897 C   0  0  0  0  0  0  0  0  0  0  0  0
   21.6707   22.1345   99.8364 C   0  0  0  0  0  0  0  0  0  0  0  0
   22.6639   21.3043  100.3030 C   0  0  0  0  0  0  0  0  0  0  0  0
   23.0106   21.1313  101.6088 O   0  0  0  0  0  0  0  0  0  0  0  0
   22.4975   21.8675  102.6600 C   0  0  2  0  0  0  0  0  0  0  0  0
   21.1087   21.6807  102.6622 F   0  0  0  0  0  0  0  0  0  0  0  0
   22.7762   23.2247  102.5613 F   0  0  0  0  0  0  0  0  0  0  0  0
   23.4299   20.5323   99.3742 C   0  0  0  0  0  0  0  0  0  0  0  0
   24.3512   19.7604   99.8027 O   0  0  0  0  0  0  0  0  0  0  0  0
   25.4273   19.0077   99.8924 C   0  0  0  0  0  0  0  0  0  0  0  0
   23.1123   20.6751   98.0214 C   0  0  0  0  0  0  0  0  0  0  0  0
   20.6461   22.3252   95.6720 N   0  0  0  0  0  0  0  0  0  0  0  0
   20.4427   22.4028   94.2789 C   0  0  0  0  0  0  0  0  0  0  0  0
   20.5094   23.5660   93.5545 C   0  0  0  0  0  0  0  0  0  0  0  0
   20.8684   25.0581   94.3944 Cl  0  0  0  0  0  0  0  0  0  0  0  0
   20.3036   23.5985   92.1907 C   0  0  0  0  0  0  0  0  0  0  0  0
   20.0279   22.4401   91.5576 N   0  0  0  0  0  0  0  0  0  0  0  0
   19.9484   21.2698   92.2065 C   0  0  0  0  0  0  0  0  0  0  0  0
   20.1554   21.2360   93.5794 C   0  0  0  0  0  0  0  0  0  0  0  0
   20.0470   19.6887   94.4158 Cl  0  0  0  0  0  0  0  0  0  0  0  0
  2  3  1  0
  2  4  1  0
  3  4  1  0
  1  5  2  0
  5  6  1  0
  6  7  2  0
  7  8  1  0
  8  9  2  0
  9 10  1  0
 10 11  1  0
 11 12  1  6
 11 13  1  0
  9 14  1  0
 14 15  1  0
  4 16  1  6
 15 16  1  0
  6 17  1  0
 14 17  2  0
  5 18  1  0
 18 19  1  0
 19 20  2  0
 20 21  1  0
 20 22  1  0
 22 23  2  0
 23 24  1  0
 19 25  1  0
 24 25  2  0
 25 26  1  0
M  END
$$$$
