1XOQ_ROF_B_501
     RDKit          3D

 26 28  0  0  0  0  0  0  0  0999 V2000
   21.4820   21.8180   95.7236 O   0  0  0  0  0  0  0  0  0  0  0  0
   24.2973   16.4177  100.3839 C   0  0  0  0  0  0  0  0  0  0  0  0
   25.6986   16.2015  100.9024 C   0  0  0  0  0  0  0  0  0  0  0  0
   24.9647   17.3888  101.3185 C   0  0  1  0  0  0  0  0  0  0  0  0
   21.9304   20.8023   96.3277 C   0  0  0  0  0  0  0  0  0  0  0  0
   22.1550   20.8835   97.7657 C   0  0  0  0  0  0  0  0  0  0  0  0
   21.4271   21.7872   98.4996 C   0  0  0  0  0  0  0  0  0  0  0  0
   21.5869   21.9175   99.8584 C   0  0  0  0  0  0  0  0  0  0  0  0
   22.4943   21.1347  100.5345 C   0  0  0  0  0  0  0  0  0  0  0  0
   22.7393   21.1735  101.8738 O   0  0  0  0  0  0  0  0  0  0  0  0
   22.1172   22.0330  102.7595 C   0  0  2  0  0  0  0  0  0  0  0  0
   20.7388   21.7958  102.6736 F   0  0  0  0  0  0  0  0  0  0  0  0
   22.3687   23.3716  102.4867 F   0  0  0  0  0  0  0  0  0  0  0  0
   23.2752   20.1789   99.8119 C   0  0  0  0  0  0  0  0  0  0  0  0
   24.1172   19.4502  100.4351 O   0  0  0  0  0  0  0  0  0  0  0  0
   25.1966   18.7786  100.7764 C   0  0  0  0  0  0  0  0  0  0  0  0
   23.0607   20.1008   98.4338 C   0  0  0  0  0  0  0  0  0  0  0  0
   22.1814   19.6539   95.5492 N   0  0  0  0  0  0  0  0  0  0  0  0
   22.2779   19.7947   94.1496 C   0  0  0  0  0  0  0  0  0  0  0  0
   23.4634   19.8584   93.4620 C   0  0  0  0  0  0  0  0  0  0  0  0
   24.9610   19.7603   94.3609 Cl  0  0  0  0  0  0  0  0  0  0  0  0
   23.5140   19.9967   92.0903 C   0  0  0  0  0  0  0  0  0  0  0  0
   22.3510   20.0709   91.4115 N   0  0  0  0  0  0  0  0  0  0  0  0
   21.1593   20.0150   92.0228 C   0  0  0  0  0  0  0  0  0  0  0  0
   21.1073   19.8758   93.4038 C   0  0  0  0  0  0  0  0  0  0  0  0
   19.5320   19.8041   94.1903 Cl  0  0  0  0  0  0  0  0  0  0  0  0
  2  3  1  0
  2  4  1  0
  3  4  1  0
  1  5  2  0
  5  6  1  0
  6  7  2  0
  7  8  1  0
  8  9  2  0
  9 10  1  0
 10 11  1  0
 11 12  1  6
 11 13  1  0
  9 14  1  0
 14 15  1  0
  4 16  1  6
 15 16  1  0
  6 17  1  0
 14 17  2  0
  5 18  1  0
 18 19  1  0
 19 20  2  0
 20 21  1  0
 20 22  1  0
 22 23  2  0
 23 24  1  0
 19 25  1  0
 24 25  2  0
 25 26  1  0
M  END
$$$$
