1XOQ_ROF_B_501
     RDKit          3D

 26 28  0  0  0  0  0  0  0  0999 V2000
   19.8210   22.4442   96.3273 O   0  0  0  0  0  0  0  0  0  0  0  0
   25.0225   17.1711   98.6869 C   0  0  0  0  0  0  0  0  0  0  0  0
   26.3159   17.1199   99.4639 C   0  0  0  0  0  0  0  0  0  0  0  0
   25.2285   17.9563   99.9529 C   0  0  1  0  0  0  0  0  0  0  0  0
   20.9344   21.8731   96.5055 C   0  0  0  0  0  0  0  0  0  0  0  0
   21.4087   21.6701   97.8689 C   0  0  0  0  0  0  0  0  0  0  0  0
   20.7372   22.2776   98.9009 C   0  0  0  0  0  0  0  0  0  0  0  0
   21.1286   22.1300  100.2102 C   0  0  0  0  0  0  0  0  0  0  0  0
   22.2211   21.3575  100.5310 C   0  0  0  0  0  0  0  0  0  0  0  0
   22.7017   21.1382  101.7864 O   0  0  0  0  0  0  0  0  0  0  0  0
   22.2601   21.7939  102.9201 C   0  0  2  0  0  0  0  0  0  0  0  0
   20.9062   21.4736  103.0874 F   0  0  0  0  0  0  0  0  0  0  0  0
   22.3969   23.1738  102.8390 F   0  0  0  0  0  0  0  0  0  0  0  0
   22.9519   20.7049   99.4891 C   0  0  0  0  0  0  0  0  0  0  0  0
   23.9652   19.9868   99.7824 O   0  0  0  0  0  0  0  0  0  0  0  0
   25.1704   19.4589   99.8185 C   0  0  0  0  0  0  0  0  0  0  0  0
   22.4981   20.8993   98.1823 C   0  0  0  0  0  0  0  0  0  0  0  0
   21.6394   21.4718   95.3524 N   0  0  0  0  0  0  0  0  0  0  0  0
   21.0645   21.7197   94.0890 C   0  0  0  0  0  0  0  0  0  0  0  0
   20.4494   20.7630   93.3217 C   0  0  0  0  0  0  0  0  0  0  0  0
   20.3629   19.1258   93.9322 Cl  0  0  0  0  0  0  0  0  0  0  0  0
   19.8989   21.0477   92.0892 C   0  0  0  0  0  0  0  0  0  0  0  0
   19.9736   22.3144   91.6324 N   0  0  0  0  0  0  0  0  0  0  0  0
   20.5607   23.2954   92.3323 C   0  0  0  0  0  0  0  0  0  0  0  0
   21.1153   23.0099   93.5732 C   0  0  0  0  0  0  0  0  0  0  0  0
   21.8830   24.3119   94.4792 Cl  0  0  0  0  0  0  0  0  0  0  0  0
  2  3  1  0
  2  4  1  0
  3  4  1  0
  1  5  2  0
  5  6  1  0
  6  7  2  0
  7  8  1  0
  8  9  2  0
  9 10  1  0
 10 11  1  0
 11 12  1  6
 11 13  1  0
  9 14  1  0
 14 15  1  0
  4 16  1  6
 15 16  1  0
  6 17  1  0
 14 17  2  0
  5 18  1  0
 18 19  1  0
 19 20  2  0
 20 21  1  0
 20 22  1  0
 22 23  2  0
 23 24  1  0
 19 25  1  0
 24 25  2  0
 25 26  1  0
M  END
$$$$
