7MAE_XUS_A_101
     RDKit          3D

 99102  0  0  0  0  0  0  0  0999 V2000
   -1.9955    4.6345   -0.3564 C   0  0  2  0  0  0  0  0  0  0  0  0
   -1.1223    3.3476   -0.3213 C   0  0  1  0  0  0  0  0  0  0  0  0
    1.3560    2.6757   -0.0802 C   0  0  0  0  0  0  0  0  0  0  0  0
    3.0754    4.4643   -0.2469 C   0  0  2  0  0  0  0  0  0  0  0  0
    4.1366    4.7550    0.7940 C   0  0  0  0  0  0  0  0  0  0  0  0
    2.6753    6.4962    0.9118 C   0  0  2  0  0  0  0  0  0  0  0  0
    1.2699    5.5908    2.4270 C   0  0  0  0  0  0  0  0  0  0  0  0
   -1.3479    2.4751   -1.5734 C   0  0  0  0  0  0  0  0  0  0  0  0
    1.5881    4.8648    0.3525 C   0  0  0  0  0  0  0  0  0  0  0  0
    0.2565    5.3008    0.3210 C   0  0  0  0  0  0  0  0  0  0  0  0
   -0.6992    4.5941   -0.4144 C   0  0  0  0  0  0  0  0  0  0  0  0
   -0.3355    3.4385   -1.1214 C   0  0  0  0  0  0  0  0  0  0  0  0
    0.9987    3.0074   -1.0954 C   0  0  0  0  0  0  0  0  0  0  0  0
    1.9547    3.7160   -0.3608 C   0  0  0  0  0  0  0  0  0  0  0  0
   -4.1527    2.6852   -2.4154 C   0  0  0  0  0  0  0  0  0  0  0  0
   -3.0359    4.6918   -1.5126 C   0  0  0  0  0  0  0  0  0  0  0  0
    1.9548    5.4038    0.1423 C   0  0  2  0  0  0  0  0  0  0  0  0
    0.9400    4.8668    1.1387 C   0  0  0  0  0  0  0  0  0  0  0  0
   -1.4348    1.0139   -1.2135 C   0  0  0  0  0  0  0  0  0  0  0  0
   -0.3247    0.3577   -0.6599 C   0  0  0  0  0  0  0  0  0  0  0  0
   -0.3936   -1.0018   -0.3434 C   0  0  0  0  0  0  0  0  0  0  0  0
   -1.5712   -1.7237   -0.5646 C   0  0  0  0  0  0  0  0  0  0  0  0
   -2.6710   -1.0773   -1.1590 C   0  0  0  0  0  0  0  0  0  0  0  0
   -2.6018    0.2815   -1.4793 C   0  0  0  0  0  0  0  0  0  0  0  0
   -7.8483    3.1754   -1.3024 C   0  0  0  0  0  0  0  0  0  0  0  0
   -5.4443    3.4838   -2.1196 C   0  0  1  0  0  0  0  0  0  0  0  0
   -6.3899    2.7424   -1.1496 C   0  0  0  0  0  0  0  0  0  0  0  0
   -5.1218    4.9114   -1.6478 C   0  0  0  0  0  0  0  0  0  0  0  0
   -0.7039   -4.0813   -0.6323 C   0  0  0  0  0  0  0  0  0  0  0  0
    0.7907   -6.4787   -1.0719 C   0  0  0  0  0  0  0  0  0  0  0  0
   -3.9502   -4.9855   -1.7160 C   0  0  0  0  0  0  0  0  0  0  0  0
    0.8126   -6.2788    0.4371 C   0  0  0  0  0  0  0  0  0  0  0  0
   -3.7462   -4.5391   -0.2779 C   0  0  0  0  0  0  0  0  0  0  0  0
   -2.9335    3.5360   -2.4416 N   0  0  0  0  0  0  0  0  0  0  0  0
    0.3064    3.6516   -0.1493 N   0  0  0  0  0  0  0  0  0  0  0  0
    2.5659    5.5870    1.1046 N   0  0  0  0  0  0  0  0  0  0  0  0
   -0.8932    2.0154   -3.3017 O   0  0  0  0  0  0  0  0  0  0  0  0
   -1.9897    1.3523   -1.2452 O   0  0  0  0  0  0  0  0  0  0  0  0
   -1.1868    5.7861   -0.3461 O   0  0  0  0  0  0  0  0  0  0  0  0
    1.0926    1.4585    0.1180 O   0  0  0  0  0  0  0  0  0  0  0  0
    2.6796    3.0918   -0.2464 O   0  0  0  0  0  0  0  0  0  0  0  0
    4.0012    6.0962    1.1986 O   0  0  0  0  0  0  0  0  0  0  0  0
    1.9891    6.7557    2.1135 O   0  0  0  0  0  0  0  0  0  0  0  0
   -1.6052   -3.0728   -0.1793 O   0  0  0  0  0  0  0  0  0  0  0  0
   -0.5106   -6.8464   -1.4652 O   0  0  0  0  0  0  0  0  0  0  0  0
   -2.7107   -5.3894   -2.2475 O   0  0  0  0  0  0  0  0  0  0  0  0
   -2.3482   -6.0742    0.2782 O   0  0  0  0  0  0  0  0  0  0  0  0
   -1.6073   -5.6351   -0.9671 P   0  0  2  0  0  5  0  0  0  0  0  0
   -1.5393    2.5393   -2.0527 S   0  0  1  0  0  6  0  0  0  0  0  0
   -2.5796    4.6548    0.5893 H   0  0  0  0  0  0  0  0  0  0  0  0
   -1.4553    2.7381    0.5431 H   0  0  0  0  0  0  0  0  0  0  0  0
    3.4496    4.7530   -1.2541 H   0  0  0  0  0  0  0  0  0  0  0  0
    4.0111    4.0931    1.6801 H   0  0  0  0  0  0  0  0  0  0  0  0
    5.1500    4.5941    0.3703 H   0  0  0  0  0  0  0  0  0  0  0  0
    2.7086    7.4265    0.3059 H   0  0  0  0  0  0  0  0  0  0  0  0
    1.8915    4.9417    3.0838 H   0  0  0  0  0  0  0  0  0  0  0  0
    0.3408    5.8626    2.9724 H   0  0  0  0  0  0  0  0  0  0  0  0
   -2.2968    2.7743   -2.0690 H   0  0  0  0  0  0  0  0  0  0  0  0
   -0.5417    2.6404   -2.3189 H   0  0  0  0  0  0  0  0  0  0  0  0
   -0.0402    6.1883    0.8643 H   0  0  0  0  0  0  0  0  0  0  0  0
   -1.7202    4.9514   -0.4309 H   0  0  0  0  0  0  0  0  0  0  0  0
    1.3036    2.1262   -1.6456 H   0  0  0  0  0  0  0  0  0  0  0  0
    2.9800    3.3678   -0.3484 H   0  0  0  0  0  0  0  0  0  0  0  0
   -4.3271    2.2127   -3.4063 H   0  0  0  0  0  0  0  0  0  0  0  0
   -4.0461    1.8314   -1.7079 H   0  0  0  0  0  0  0  0  0  0  0  0
   -2.8441    5.6453   -2.0477 H   0  0  0  0  0  0  0  0  0  0  0  0
   -4.0646    4.8191   -1.1214 H   0  0  0  0  0  0  0  0  0  0  0  0
    1.4411    5.8042   -0.7613 H   0  0  0  0  0  0  0  0  0  0  0  0
   -0.0855    5.1457    0.8098 H   0  0  0  0  0  0  0  0  0  0  0  0
    0.9705    3.7658    1.2869 H   0  0  0  0  0  0  0  0  0  0  0  0
    0.5942    0.8991   -0.4736 H   0  0  0  0  0  0  0  0  0  0  0  0
    0.4645   -1.4928    0.0983 H   0  0  0  0  0  0  0  0  0  0  0  0
   -3.5798   -1.6147   -1.3845 H   0  0  0  0  0  0  0  0  0  0  0  0
   -3.4576    0.7615   -1.9368 H   0  0  0  0  0  0  0  0  0  0  0  0
   -7.9818    4.2325   -0.9894 H   0  0  0  0  0  0  0  0  0  0  0  0
   -8.4925    2.5418   -0.6564 H   0  0  0  0  0  0  0  0  0  0  0  0
   -8.1814    3.0558   -2.3556 H   0  0  0  0  0  0  0  0  0  0  0  0
   -5.9778    3.5755   -3.0926 H   0  0  0  0  0  0  0  0  0  0  0  0
   -6.0823    2.9082   -0.0997 H   0  0  0  0  0  0  0  0  0  0  0  0
   -6.3408    1.6505   -1.3532 H   0  0  0  0  0  0  0  0  0  0  0  0
   -4.7428    4.9121   -0.6073 H   0  0  0  0  0  0  0  0  0  0  0  0
   -4.3527    5.3689   -2.3050 H   0  0  0  0  0  0  0  0  0  0  0  0
   -6.0280    5.5512   -1.6973 H   0  0  0  0  0  0  0  0  0  0  0  0
   -0.1391   -3.7396   -1.5208 H   0  0  0  0  0  0  0  0  0  0  0  0
    0.0332   -4.2730    0.1736 H   0  0  0  0  0  0  0  0  0  0  0  0
    1.0813   -5.5198   -1.5551 H   0  0  0  0  0  0  0  0  0  0  0  0
    1.5385   -7.2650   -1.3210 H   0  0  0  0  0  0  0  0  0  0  0  0
   -4.3584   -4.1279   -2.2950 H   0  0  0  0  0  0  0  0  0  0  0  0
   -4.6860   -5.8197   -1.7111 H   0  0  0  0  0  0  0  0  0  0  0  0
    1.8332   -5.9858    0.7619 H   0  0  0  0  0  0  0  0  0  0  0  0
    0.5305   -7.2242    0.9498 H   0  0  0  0  0  0  0  0  0  0  0  0
    0.0973   -5.4771    0.7262 H   0  0  0  0  0  0  0  0  0  0  0  0
   -3.0378   -3.6831   -0.2426 H   0  0  0  0  0  0  0  0  0  0  0  0
   -3.3337   -5.3766    0.3270 H   0  0  0  0  0  0  0  0  0  0  0  0
   -4.7164   -4.2247    0.1618 H   0  0  0  0  0  0  0  0  0  0  0  0
    0.5840    4.6565   -0.0839 H   0  0  0  0  0  0  0  0  0  0  0  0
    3.5581    5.2639    1.1417 H   0  0  0  0  0  0  0  0  0  0  0  0
    2.3055    6.4488    1.6320 H   0  0  0  0  0  0  0  0  0  0  0  0
   -0.5341    5.7072   -1.0901 H   0  0  0  0  0  0  0  0  0  0  0  0
  1  2  1  0
  4  5  1  0
  2  8  1  0
  9 10  4  0
 10 11  4  0
 11 12  4  0
 12 13  4  0
  9 14  4  0
 13 14  4  0
  1 16  1  0
  4 17  1  0
  6 17  1  0
  7 18  1  0
 17 18  1  0
  8 19  1  0
 19 20  4  0
 20 21  4  0
 21 22  4  0
 22 23  4  0
 19 24  4  0
 23 24  4  0
 15 26  1  0
 26 27  1  0
 25 27  1  0
 26 28  1  0
 30 32  1  0
 31 33  1  0
 15 34  1  0
 16 34  1  0
  2 35  1  0
  3 35  1  0
  9 36  1  0
  1 39  1  0
  3 40  2  0
  3 41  1  0
  4 41  1  0
  5 42  1  0
  6 42  1  0
  7 43  1  0
  6 43  1  0
 22 44  1  0
 29 44  1  0
 30 45  1  0
 31 46  1  0
 29 48  1  0
 47 48  2  0
 48 45  1  1
 46 48  1  0
 12 49  1  0
 49 34  1  1
 37 49  2  0
 38 49  2  0
  1 50  1  6
  2 51  1  6
  4 52  1  1
  5 53  1  0
  5 54  1  0
  6 55  1  1
  7 56  1  0
  7 57  1  0
  8 58  1  0
  8 59  1  0
 10 60  1  0
 11 61  1  0
 13 62  1  0
 14 63  1  0
 15 64  1  0
 15 65  1  0
 16 66  1  0
 16 67  1  0
 17 68  1  1
 18 69  1  0
 18 70  1  0
 20 71  1  0
 21 72  1  0
 23 73  1  0
 24 74  1  0
 25 75  1  0
 25 76  1  0
 25 77  1  0
 26 78  1  1
 27 79  1  0
 27 80  1  0
 28 81  1  0
 28 82  1  0
 28 83  1  0
 29 84  1  0
 29 85  1  0
 30 86  1  0
 30 87  1  0
 31 88  1  0
 31 89  1  0
 32 90  1  0
 32 91  1  0
 32 92  1  0
 33 93  1  0
 33 94  1  0
 33 95  1  0
 35 96  1  0
 36 97  1  0
 36 98  1  0
 39 99  1  0
M  END
