
     RDKit          3D

 23 24  0  0  0  0  0  0  0  0999 V2000
  -69.6792   37.9166   -6.4385 C   0  0  0  0  0  0  0  0  0  0  0  0
  -68.9328   39.1810   -6.0805 C   0  0  0  0  0  0  0  0  0  0  0  0
  -69.5631   40.2239   -5.4764 C   0  0  0  0  0  0  0  0  0  0  0  0
  -71.0335   40.2244   -5.1400 C   0  0  0  0  0  0  0  0  0  0  0  0
  -68.9256   41.3896   -5.1044 N   0  0  0  0  0  0  0  0  0  0  0  0
  -67.6451   41.4863   -5.3033 C   0  0  0  0  0  0  0  0  0  0  0  0
  -66.9082   42.7387   -4.9162 C   0  0  0  0  0  0  0  0  0  0  0  0
  -67.3844   43.5786   -4.1719 O   0  0  0  0  0  0  0  0  0  0  0  0
  -65.6521   42.7939   -5.4275 N   0  0  0  0  0  0  0  0  0  0  0  0
  -64.9288   41.6508   -5.5914 C   0  0  0  0  0  0  0  0  0  0  0  0
  -63.7367   41.6622   -5.3012 O   0  0  0  0  0  0  0  0  0  0  0  0
  -65.5575   40.5276   -6.0538 N   0  0  0  0  0  0  0  0  0  0  0  0
  -66.8428   40.3812   -5.9397 C   0  0  0  0  0  0  0  0  0  0  0  0
  -67.5526   39.2549   -6.3662 N   0  0  0  0  0  0  0  0  0  0  0  0
  -66.7884   38.1921   -7.0665 C   0  0  0  0  0  0  0  0  0  0  0  0
  -66.4991   38.5923   -8.5321 C   0  0  2  0  0  0  0  0  0  0  0  0
  -67.7348   38.9937   -9.1698 O   0  0  0  0  0  0  0  0  0  0  0  0
  -65.9315   37.4303   -9.3734 C   0  0  2  0  0  0  0  0  0  0  0  0
  -66.9620   36.4563   -9.5970 O   0  0  0  0  0  0  0  0  0  0  0  0
  -64.7017   36.7604   -8.7548 C   0  0  2  0  0  0  0  0  0  0  0  0
  -63.8631   37.7448   -8.1536 O   0  0  0  0  0  0  0  0  0  0  0  0
  -63.8918   35.9840   -9.8004 C   0  0  0  0  0  0  0  0  0  0  0  0
  -64.5784   34.7671  -10.1013 O   0  0  0  0  0  0  0  0  0  0  0  0
  1  2  1  0
  2  3  4  0
  3  4  1  0
  3  5  4  0
  5  6  4  0
  6  7  4  0
  7  8  2  0
  7  9  4  0
  9 10  4  0
 10 11  2  0
 10 12  4  0
  6 13  1  0
 12 13  4  0
  2 14  4  0
 13 14  4  0
 14 15  1  0
 15 16  1  0
 16 17  1  6
 16 18  1  0
 18 19  1  1
 18 20  1  0
 20 21  1  6
 20 22  1  0
 22 23  1  0
M  END
