7ODX_DGP_A_401
     RDKit          3D

 23 25  0  0  0  0  0  0  0  0999 V2000
  -33.4230   23.1611    8.2953 P   0  0  2  0  0  5  0  0  0  0  0  0
  -33.8621   24.3617    7.4821 O   0  0  0  0  0  0  0  0  0  0  0  0
  -32.2570   22.3112    7.4121 O   0  0  0  0  0  0  0  0  0  0  0  0
  -34.7698   22.1466    8.5874 O   0  0  0  0  0  0  0  0  0  0  0  0
  -32.8463   23.6523    9.7938 O   0  0  0  0  0  0  0  0  0  0  0  0
  -31.9983   22.6758   10.3325 C   0  0  0  0  0  0  0  0  0  0  0  0
  -30.7668   23.3939   10.8282 C   0  0  1  0  0  0  0  0  0  0  0  0
  -30.6109   23.1627   12.1642 O   0  0  0  0  0  0  0  0  0  0  0  0
  -29.5177   22.8683   10.1334 C   0  0  1  0  0  0  0  0  0  0  0  0
  -29.2074   23.7873    9.1244 O   0  0  0  0  0  0  0  0  0  0  0  0
  -28.5298   22.9932   11.3052 C   0  0  0  0  0  0  0  0  0  0  0  0
  -29.4128   22.5302   12.4152 C   0  0  2  0  0  0  0  0  0  0  0  0
  -29.5621   21.1133   12.4934 N   0  0  0  0  0  0  0  0  0  0  0  0
  -30.6033   20.4491   11.9096 C   0  0  0  0  0  0  0  0  0  0  0  0
  -30.4913   19.1332   12.1443 N   0  0  0  0  0  0  0  0  0  0  0  0
  -29.3960   18.9143   12.8722 C   0  0  0  0  0  0  0  0  0  0  0  0
  -28.8284   17.7598   13.3789 C   0  0  0  0  0  0  0  0  0  0  0  0
  -29.3369   16.6190   13.1949 O   0  0  0  0  0  0  0  0  0  0  0  0
  -27.7019   17.8944   14.0836 N   0  0  0  0  0  0  0  0  0  0  0  0
  -27.1663   19.1120   14.2755 C   0  0  0  0  0  0  0  0  0  0  0  0
  -25.9579   19.1861   15.0402 N   0  0  0  0  0  0  0  0  0  0  0  0
  -27.6993   20.2472   13.7932 N   0  0  0  0  0  0  0  0  0  0  0  0
  -28.8304   20.1574   13.0801 C   0  0  0  0  0  0  0  0  0  0  0  0
  1  2  2  0
  1  3  1  6
  1  4  1  0
  1  5  1  0
  6  5  1  1
  7  6  1  0
  7  8  1  1
  7  9  1  0
  9 10  1  6
  9 11  1  0
  8 12  1  0
 11 12  1  6
 12 13  1  6
 13 14  1  0
 14 15  2  0
 15 16  1  0
 16 17  1  0
 17 18  2  0
 17 19  1  0
 19 20  1  0
 20 21  1  0
 20 22  2  0
 13 23  1  0
 16 23  2  0
 22 23  1  0
M  END
$$$$
