7AMC_73B_A_201
     RDKit          3D

 31 34  0  0  0  0  0  0  0  0999 V2000
   19.6581   68.4135   50.7796 C   0  0  0  0  0  0  0  0  0  0  0  0
   20.1661   69.6789   50.1352 C   0  0  1  0  0  0  0  0  0  0  0  0
   19.7855   70.8684   50.9531 C   0  0  0  0  0  0  0  0  0  0  0  0
   20.7247   71.2924   52.0017 C   0  0  1  0  0  0  0  0  0  0  0  0
   20.1187   71.3487   53.3175 N   0  0  0  0  0  0  0  0  0  0  0  0
   19.7235   72.5382   53.9674 C   0  0  0  0  0  0  0  0  0  0  0  0
   18.9634   72.4952   55.1453 C   0  0  0  0  0  0  0  0  0  0  0  0
   18.5692   73.6386   55.8026 C   0  0  0  0  0  0  0  0  0  0  0  0
   18.9000   74.8902   55.3392 C   0  0  0  0  0  0  0  0  0  0  0  0
   18.3736   76.2964   56.2123 Cl  0  0  0  0  0  0  0  0  0  0  0  0
   19.6454   74.9573   54.1852 C   0  0  0  0  0  0  0  0  0  0  0  0
   20.0417   73.8058   53.5243 C   0  0  0  0  0  0  0  0  0  0  0  0
   21.9610   70.4859   52.1265 C   0  0  0  0  0  0  0  0  0  0  0  0
   22.7354   70.5713   53.2679 C   0  0  0  0  0  0  0  0  0  0  0  0
   23.8956   69.7999   53.3914 C   0  0  0  0  0  0  0  0  0  0  0  0
   24.3031   68.9357   52.3892 C   0  0  0  0  0  0  0  0  0  0  0  0
   23.5309   68.8493   51.2495 C   0  0  0  0  0  0  0  0  0  0  0  0
   22.3914   69.6202   51.1490 C   0  0  0  0  0  0  0  0  0  0  0  0
   21.6000   69.5390   49.9576 N   0  0  0  0  0  0  0  0  0  0  0  0
   22.1771   69.3780   48.6776 C   0  0  0  0  0  0  0  0  0  0  0  0
   23.6101   69.3468   48.3462 C   0  0  0  0  0  0  0  0  0  0  0  0
   21.3687   69.2514   47.7094 O   0  0  0  0  0  0  0  0  0  0  0  0
   24.6535   69.9549   54.6347 C   0  0  0  0  0  0  0  0  0  0  0  0
   24.1475   70.7266   55.6619 C   0  0  0  0  0  0  0  0  0  0  0  0
   24.8500   70.8807   56.8349 C   0  0  0  0  0  0  0  0  0  0  0  0
   26.0684   70.2533   56.9716 C   0  0  0  0  0  0  0  0  0  0  0  0
   26.6036   69.4729   55.9613 C   0  0  0  0  0  0  0  0  0  0  0  0
   25.8868   69.3197   54.7730 C   0  0  0  0  0  0  0  0  0  0  0  0
   26.8065   70.4167   58.2077 C   0  0  0  0  0  0  0  0  0  0  0  0
   27.9402   69.8446   58.3219 O   0  0  0  0  0  0  0  0  0  0  0  0
   26.2894   71.1859   59.2567 O   0  0  0  0  0  0  0  0  0  0  0  0
  1  2  1  1
  2  3  1  0
  3  4  1  6
  4  5  1  1
  5  6  1  0
  6  7  2  0
  7  8  1  0
  8  9  2  0
  9 10  1  0
  9 11  1  0
 11 12  2  0
  6 12  1  0
  4 13  1  0
 13 14  1  0
 14 15  2  0
 15 16  1  0
 16 17  2  0
 13 18  2  0
 17 18  1  0
  2 19  1  1
 18 19  1  0
 19 20  1  0
 21 20  1  1
 20 22  2  0
 15 23  1  0
 23 24  2  0
 24 25  1  0
 25 26  2  0
 26 27  1  0
 27 28  2  0
 23 28  1  0
 26 29  1  0
 29 30  2  0
 29 31  1  0
M  END
$$$$
