
     RDKit          3D

 20 22  0  0  0  0  0  0  0  0999 V2000
 -120.0236  203.3068   -3.1257 C   0  0  0  0  0  0  0  0  0  0  0  0
 -119.7138  202.0384   -3.6258 C   0  0  0  0  0  0  0  0  0  0  0  0
 -118.1875  200.0305   -3.6933 C   0  0  0  0  0  0  0  0  0  0  0  0
 -118.5575  201.3769   -3.1939 C   0  0  0  0  0  0  0  0  0  0  0  0
 -117.7146  201.9932   -2.2605 C   0  0  0  0  0  0  0  0  0  0  0  0
 -118.0256  203.2613   -1.7620 C   0  0  0  0  0  0  0  0  0  0  0  0
 -117.5177  199.2081   -3.0965 O   0  0  0  0  0  0  0  0  0  0  0  0
 -119.1818  203.9205   -2.1920 C   0  0  0  0  0  0  0  0  0  0  0  0
 -118.6773  199.7751   -4.9193 O   0  0  0  0  0  0  0  0  0  0  0  0
 -119.5123  205.2420   -1.6649 C   0  0  0  0  0  0  0  0  0  0  0  0
 -119.7799  205.5228   -0.3813 C   0  0  0  0  0  0  0  0  0  0  0  0
 -120.1676  207.9194   -0.6826 O   0  0  0  0  0  0  0  0  0  0  0  0
 -120.1069  206.9353    0.0289 C   0  0  0  0  0  0  0  0  0  0  0  0
 -119.6324  203.3530    1.0892 C   0  0  0  0  0  0  0  0  0  0  0  0
 -119.8328  204.6965    0.8283 C   0  0  0  0  0  0  0  0  0  0  0  0
 -120.3241  206.8697    1.3947 N   0  0  0  0  0  0  0  0  0  0  0  0
 -119.7724  202.9057    2.4089 C   0  0  0  0  0  0  0  0  0  0  0  0
 -120.1083  203.7970    3.4439 C   0  0  0  0  0  0  0  0  0  0  0  0
 -120.3106  205.1525    3.1788 C   0  0  0  0  0  0  0  0  0  0  0  0
 -120.1671  205.5704    1.8708 C   0  0  0  0  0  0  0  0  0  0  0  0
  1  2  4  0
  3  4  1  0
  2  4  4  0
  4  5  4  0
  5  6  4  0
  3  7  2  0
  1  8  4  0
  6  8  4  0
  3  9  1  0
  8 10  1  0
 10 11  2  0
 12 13  2  0
 11 13  1  0
 11 15  1  0
 14 15  4  0
 13 16  1  0
 14 17  4  0
 17 18  4  0
 18 19  4  0
 15 20  4  0
 16 20  1  0
 19 20  4  0
M  END
