6TW7_NZB_AAA_1003
     RDKit          3D

 52 55  0  0  0  0  0  0  0  0999 V2000
    0.8007   45.9404   61.4323 C   0  0  0  0  0  0  0  0  0  0  0  0
    1.4166   45.9071   60.0632 C   0  0  0  0  0  0  0  0  0  0  0  0
    1.7992   43.5193   60.5195 C   0  0  0  0  0  0  0  0  0  0  0  0
   -0.4206   45.5506   61.8154 N   0  0  0  0  0  4  0  0  0  0  0  0
    2.1032   47.3353   65.1106 C   0  0  0  0  0  0  0  0  0  0  0  0
    0.8018   46.8149   64.9636 C   0  0  0  0  0  0  0  0  0  0  0  0
    0.4497   46.3542   63.6619 C   0  0  0  0  0  0  0  0  0  0  0  0
    3.0248   47.4667   64.0594 C   0  0  0  0  0  0  0  0  0  0  0  0
    5.5711   46.9619   61.0728 C   0  0  0  0  0  0  0  0  0  0  0  0
    5.3911   45.5704   61.6358 C   0  0  0  0  0  0  0  0  0  0  0  0
    4.1388   44.8848   61.1820 C   0  0  0  0  0  0  0  0  0  0  0  0
    5.2910   48.2122   63.1183 C   0  0  0  0  0  0  0  0  0  0  0  0
    6.5897   48.7135   63.3247 C   0  0  0  0  0  0  0  0  0  0  0  0
    3.5125   45.3426   60.0108 C   0  0  0  0  0  0  0  0  0  0  0  0
    4.4327   47.9771   64.2441 C   0  0  0  0  0  0  0  0  0  0  0  0
    1.4398   46.4836   62.6174 C   0  0  0  0  0  0  0  0  0  0  0  0
    2.6792   47.0648   62.8210 C   0  0  0  0  0  0  0  0  0  0  0  0
    6.9010   49.0191   64.6320 C   0  0  0  0  0  0  0  0  0  0  0  0
    6.0737   48.8582   65.7331 C   0  0  0  0  0  0  0  0  0  0  0  0
    4.7984   48.3416   65.5282 C   0  0  0  0  0  0  0  0  0  0  0  0
   -0.6562   45.7423   63.1598 N   0  0  0  0  0  0  0  0  0  0  0  0
    8.1308   49.4945   64.9545 F   0  0  0  0  0  0  0  0  0  0  0  0
    1.8016   44.5787   59.5136 N   0  0  0  0  0  0  0  0  0  0  0  0
    1.0271   44.3153   58.2691 C   0  0  0  0  0  0  0  0  0  0  0  0
    4.8484   47.8473   61.9194 O   0  0  0  0  0  0  0  0  0  0  0  0
    3.5931   43.8354   61.9254 C   0  0  0  0  0  0  0  0  0  0  0  0
    2.4517   43.1864   61.5525 N   0  0  0  0  0  0  0  0  0  0  0  0
    1.8246   43.6148   60.4296 C   0  0  0  0  0  0  0  0  0  0  0  0
    2.3534   44.6416   59.6671 C   0  0  0  0  0  0  0  0  0  0  0  0
    2.3007   46.5089   60.0952 H   0  0  0  0  0  0  0  0  0  0  0  0
    0.6459   46.2589   59.4097 H   0  0  0  0  0  0  0  0  0  0  0  0
    2.3858   43.8249   61.3606 H   0  0  0  0  0  0  0  0  0  0  0  0
    2.2155   42.6277   60.0994 H   0  0  0  0  0  0  0  0  0  0  0  0
    0.7946   43.3296   60.8352 H   0  0  0  0  0  0  0  0  0  0  0  0
   -1.0845   45.1655   61.1987 H   0  0  0  0  0  0  0  0  0  0  0  0
    2.3979   47.6395   66.0517 H   0  0  0  0  0  0  0  0  0  0  0  0
    0.1406   46.7699   65.7546 H   0  0  0  0  0  0  0  0  0  0  0  0
    5.1846   47.0085   60.0761 H   0  0  0  0  0  0  0  0  0  0  0  0
    6.6067   47.2285   61.0349 H   0  0  0  0  0  0  0  0  0  0  0  0
    5.3681   45.6401   62.7033 H   0  0  0  0  0  0  0  0  0  0  0  0
    6.2113   44.9839   61.2777 H   0  0  0  0  0  0  0  0  0  0  0  0
    7.2613   48.8431   62.5519 H   0  0  0  0  0  0  0  0  0  0  0  0
    3.8773   46.1296   59.4518 H   0  0  0  0  0  0  0  0  0  0  0  0
    3.3323   47.1891   62.0316 H   0  0  0  0  0  0  0  0  0  0  0  0
    6.3955   49.1150   66.6794 H   0  0  0  0  0  0  0  0  0  0  0  0
    4.1402   48.2327   66.3155 H   0  0  0  0  0  0  0  0  0  0  0  0
    1.3028   43.3604   57.8727 H   0  0  0  0  0  0  0  0  0  0  0  0
    1.2412   45.0762   57.5479 H   0  0  0  0  0  0  0  0  0  0  0  0
   -0.0193   44.3200   58.4926 H   0  0  0  0  0  0  0  0  0  0  0  0
    4.0719   43.5393   62.7904 H   0  0  0  0  0  0  0  0  0  0  0  0
    0.9404   43.1688   60.1392 H   0  0  0  0  0  0  0  0  0  0  0  0
    1.8648   44.9041   58.7968 H   0  0  0  0  0  0  0  0  0  0  0  0
  1  2  1  0
  1  4  4  0
  5  6  4  0
  6  7  4  0
  5  8  4  0
  9 10  1  0
 10 11  1  0
 12 13  4  0
 11 14  4  0
  8 15  1  0
 12 15  4  0
  7 16  4  0
  1 16  4  0
 16 17  4  0
  8 17  4  0
 13 18  4  0
 18 19  4  0
 19 20  4  0
 15 20  4  0
  7 21  4  0
  4 21  4  0
 18 22  1  0
  3 23  1  0
  2 23  1  0
 23 24  1  0
 12 25  1  0
  9 25  1  0
 11 26  4  0
 26 27  4  0
 27 28  4  0
 14 29  4  0
 28 29  4  0
  2 30  1  0
  2 31  1  0
  3 32  1  0
  3 33  1  0
  3 34  1  0
  4 35  1  0
  5 36  1  0
  6 37  1  0
  9 38  1  0
  9 39  1  0
 10 40  1  0
 10 41  1  0
 13 42  1  0
 14 43  1  0
 17 44  1  0
 19 45  1  0
 20 46  1  0
 24 47  1  0
 24 48  1  0
 24 49  1  0
 26 50  1  0
 28 51  1  0
 29 52  1  0
M  CHG  1   4   1
M  END
