7WQQ_5Z6_A_501
     RDKit          3D

 27 28  0  0  0  0  0  0  0  0999 V2000
   29.4721   -4.9514   10.5990 C   0  0  0  0  0  0  0  0  0  0  0  0
   31.7632   -3.2084   11.4532 C   0  0  0  0  0  0  0  0  0  0  0  0
   33.7893   -2.1093   10.8783 C   0  0  0  0  0  0  0  0  0  0  0  0
   32.5903   -3.2937    9.1917 C   0  0  0  0  0  0  0  0  0  0  0  0
   26.4692   -7.2905   10.1907 C   0  0  0  0  0  0  0  0  0  0  0  0
   25.2608   -7.5425   10.7863 C   0  0  0  0  0  0  0  0  0  0  0  0
   25.0789   -9.3533    9.0659 C   0  0  0  0  0  0  0  0  0  0  0  0
   23.0833   -8.6833   10.5364 C   0  0  0  0  0  0  0  0  0  0  0  0
   25.7195   -4.3618   14.3011 C   0  0  0  0  0  0  0  0  0  0  0  0
   24.8464   -4.4907   13.0557 C   0  0  2  0  0  0  0  0  0  0  0  0
   24.7950   -3.1043   12.3918 C   0  0  0  0  0  0  0  0  0  0  0  0
   23.4415   -4.9087   13.4857 C   0  0  0  0  0  0  0  0  0  0  0  0
   25.4043   -5.5256   12.0627 C   0  0  0  0  0  0  0  0  0  0  0  0
   26.6048   -5.2710   11.4525 C   0  0  0  0  0  0  0  0  0  0  0  0
   27.1415   -6.1258   10.5268 C   0  0  0  0  0  0  0  0  0  0  0  0
   28.4906   -5.8702    9.8816 C   0  0  0  0  0  0  0  0  0  0  0  0
   30.5065   -4.5224    9.6251 C   0  0  0  0  0  0  0  0  0  0  0  0
   31.6590   -3.6372   10.1400 C   0  0  0  0  0  0  0  0  0  0  0  0
   32.8815   -2.4471   11.8316 C   0  0  0  0  0  0  0  0  0  0  0  0
   35.0197   -1.3021   11.2909 C   0  0  0  0  0  0  0  0  0  0  0  0
   33.7017   -2.5454    9.5607 C   0  0  0  0  0  0  0  0  0  0  0  0
   24.5844   -8.8399   10.4230 C   0  0  2  0  0  0  0  0  0  0  0  0
   25.0571   -9.8312   11.4903 C   0  0  0  0  0  0  0  0  0  0  0  0
   24.7072   -6.6808   11.7096 C   0  0  0  0  0  0  0  0  0  0  0  0
   28.8293   -6.4440    8.8999 O   0  0  0  0  0  0  0  0  0  0  0  0
   35.5674   -0.5592   10.4393 O   0  0  0  0  0  0  0  0  0  0  0  0
   35.4764   -1.5108   12.4454 O   0  0  0  0  0  0  0  0  0  0  0  0
  5  6  2  0
 10  9  1  1
 10 11  1  0
 10 12  1  0
 10 13  1  0
 13 14  1  0
  5 15  1  0
 14 15  2  0
 15 16  1  0
  1 16  1  0
  1 17  2  0
 17 18  1  0
  4 18  1  0
  2 18  2  0
  2 19  1  0
  3 19  2  0
  3 20  1  0
  4 21  2  0
  3 21  1  0
 22  7  1  6
  8 22  1  0
  6 22  1  0
 22 23  1  0
  6 24  1  0
 13 24  2  0
 16 25  2  0
 20 26  2  0
 20 27  1  0
M  END
