6VS3_R6V_B_1201
     RDKit          3D

 36 41  0  0  0  0  0  0  0  0999 V2000
   58.3288  -16.3203  -12.9740 C   0  0  0  0  0  0  0  0  0  0  0  0
   57.0728  -18.4336  -12.2496 C   0  0  0  0  0  0  0  0  0  0  0  0
   55.6253  -20.1509  -11.4619 C   0  0  0  0  0  0  0  0  0  0  0  0
   52.4722  -19.9904   -9.4463 C   0  0  0  0  0  0  0  0  0  0  0  0
   51.4842  -19.1599   -8.9733 C   0  0  0  0  0  0  0  0  0  0  0  0
   51.3774  -17.8512   -9.3883 C   0  0  0  0  0  0  0  0  0  0  0  0
   50.4033  -16.8233   -7.3524 C   0  0  0  0  0  0  0  0  0  0  0  0
   48.9158  -17.4327   -9.2484 C   0  0  0  0  0  0  0  0  0  0  0  0
   60.7118  -12.3824  -12.5816 C   0  0  0  0  0  0  0  0  0  0  0  0
   59.5715  -13.2345  -12.2735 C   0  0  0  0  0  0  0  0  0  0  0  0
   59.0527  -14.0051  -13.4153 C   0  0  2  0  0  0  0  0  0  0  0  0
   58.3687  -13.3175  -14.5105 C   0  0  2  0  0  0  0  0  0  0  0  0
   57.7401  -14.1445  -15.5869 C   0  0  0  0  0  0  0  0  0  0  0  0
   57.1881  -13.0211  -16.4939 C   0  0  0  0  0  0  0  0  0  0  0  0
   58.1258  -11.8671  -16.3150 C   0  0  0  0  0  0  0  0  0  0  0  0
   59.2100  -12.3870  -15.3587 C   0  0  0  0  0  0  0  0  0  0  0  0
   56.4150  -15.9964  -11.9160 C   0  0  0  0  0  0  0  0  0  0  0  0
   57.2681  -16.9943  -12.3751 C   0  0  0  0  0  0  0  0  0  0  0  0
   53.4284  -19.5554  -10.3779 C   0  0  0  0  0  0  0  0  0  0  0  0
   50.2882  -17.0097   -8.8394 C   0  0  2  0  0  0  0  0  0  0  0  0
   49.1342  -17.1420   -6.6006 C   0  0  0  0  0  0  0  0  0  0  0  0
   48.2793  -18.4810   -8.4039 C   0  0  0  0  0  0  0  0  0  0  0  0
   52.3050  -17.4028  -10.3021 C   0  0  0  0  0  0  0  0  0  0  0  0
   53.3060  -18.2503  -10.7790 C   0  0  0  0  0  0  0  0  0  0  0  0
   57.6689  -20.7003  -12.5338 C   0  0  0  0  0  0  0  0  0  0  0  0
   57.9700  -19.3688  -12.7109 C   0  0  0  0  0  0  0  0  0  0  0  0
   59.1711  -19.2333  -13.3469 C   0  0  0  0  0  0  0  0  0  0  0  0
   59.6201  -20.5335  -13.5665 C   0  0  0  0  0  0  0  0  0  0  0  0
   61.6163  -11.6836  -12.8384 N   0  0  0  0  0  0  0  0  0  0  0  0
   58.1195  -15.0100  -12.8772 N   0  0  0  0  0  0  0  0  0  0  0  0
   56.9832  -14.8244  -12.2488 N   0  0  0  0  0  0  0  0  0  0  0  0
   55.9449  -18.8434  -11.6482 N   0  0  0  0  0  0  0  0  0  0  0  0
   54.4159  -20.4604  -10.8178 N   0  0  0  0  0  0  0  0  0  0  0  0
   48.5712  -18.4135   -7.0039 N   0  0  0  0  0  0  0  0  0  0  0  0
   56.5207  -21.0335  -11.9229 N   0  0  0  0  0  0  0  0  0  0  0  0
   58.6921  -21.3945  -13.0647 N   0  0  0  0  0  0  0  0  0  0  0  0
  4  5  2  0
  5  6  1  0
  9 10  1  0
 11 10  1  1
 11 12  1  0
 12 13  1  6
 13 14  1  0
 14 15  1  0
 15 16  1  0
 12 16  1  0
 17 18  1  0
  1 18  2  0
  2 18  1  0
  4 19  1  0
  8 20  1  0
 20  6  1  1
  7 20  1  0
  7 21  1  0
  8 22  1  0
  6 23  2  0
 23 24  1  0
 19 24  2  0
  2 26  2  0
 25 26  1  0
 26 27  1  0
 27 28  2  0
  9 29  3  0
 11 30  1  0
  1 30  1  0
 30 31  1  0
 17 31  2  0
  2 32  1  0
  3 32  2  0
 19 33  1  0
  3 33  1  0
 22 34  1  0
 21 34  1  0
  3 35  1  0
 25 35  2  0
 28 36  1  0
 25 36  1  0
M  END
$$$$
