
     RDKit          3D

 22 24  0  0  0  0  0  0  0  0999 V2000
  -16.5700    1.1956  -18.9804 C   0  0  0  0  0  0  0  0  0  0  0  0
  -17.0226   -0.7024  -17.0592 C   0  0  0  0  0  0  0  0  0  0  0  0
  -14.3424   -0.8207  -11.1350 C   0  0  0  0  0  0  0  0  0  0  0  0
  -14.0611   -0.9207  -12.4488 C   0  0  0  0  0  0  0  0  0  0  0  0
  -11.8548   -3.7817  -12.6424 C   0  0  0  0  0  0  0  0  0  0  0  0
  -15.4940    0.4487  -18.5240 C   0  0  0  0  0  0  0  0  0  0  0  0
  -13.1909   -1.9752  -12.8035 C   0  0  0  0  0  0  0  0  0  0  0  0
  -12.7243   -2.2749  -14.0578 N   0  0  0  0  0  0  0  0  0  0  0  0
  -12.9808   -1.5737  -15.3073 C   0  0  0  0  0  0  0  0  0  0  0  0
  -14.3914   -1.8059  -15.8200 C   0  0  0  0  0  0  0  0  0  0  0  0
  -15.2345   -2.3418  -15.0991 O   0  0  0  0  0  0  0  0  0  0  0  0
  -14.1843   -1.5256   -8.7729 C   0  0  0  0  0  0  0  0  0  0  0  0
  -18.0336    0.0940  -17.5808 C   0  0  0  0  0  0  0  0  0  0  0  0
  -11.9247   -3.3958  -13.9684 C   0  0  0  0  0  0  0  0  0  0  0  0
  -12.9668   -2.7777  -10.4847 C   0  0  0  0  0  0  0  0  0  0  0  0
  -15.7214   -0.5313  -17.5420 C   0  0  0  0  0  0  0  0  0  0  0  0
  -12.6536   -2.8800  -11.9059 C   0  0  0  0  0  0  0  0  0  0  0  0
  -17.8385    1.0389  -18.5361 N   0  0  0  0  0  0  0  0  0  0  0  0
  -14.6181   -1.2975  -17.0923 N   0  0  0  0  0  0  0  0  0  0  0  0
  -13.8316   -1.7001  -10.1710 N   0  0  0  0  0  0  0  0  0  0  0  0
  -12.5126   -3.5643   -9.6511 O   0  0  0  0  0  0  0  0  0  0  0  0
  -13.9105    0.7640  -19.1469 Cl  0  0  0  0  0  0  0  0  0  0  0  0
  3  4  4  0
  1  6  4  0
  4  7  4  0
  7  8  4  0
  8  9  1  0
  9 10  1  0
 10 11  2  0
  2 13  4  0
  8 14  4  0
  5 14  4  0
  6 16  4  0
  2 16  4  0
  5 17  4  0
  7 17  4  0
 15 17  4  0
  1 18  4  0
 13 18  4  0
 16 19  1  0
 10 19  1  0
 15 20  4  0
  3 20  4  0
 12 20  1  0
 15 21  2  0
  6 22  1  0
M  END
