1SG0_STL_B_502
     RDKit          3D

 17 18  0  0  0  0  0  0  0  0999 V2000
   35.7823   33.8883   39.4046 C   0  0  0  0  0  0  0  0  0  0  0  0
   34.9446   32.7929   39.3952 C   0  0  0  0  0  0  0  0  0  0  0  0
   34.4612   32.3451   38.1839 C   0  0  0  0  0  0  0  0  0  0  0  0
   34.8067   32.9767   37.0110 C   0  0  0  0  0  0  0  0  0  0  0  0
   35.6547   34.0908   36.9866 C   0  0  0  0  0  0  0  0  0  0  0  0
   36.1220   34.5154   38.2119 C   0  0  0  0  0  0  0  0  0  0  0  0
   36.0032   34.7395   35.7277 C   0  0  0  0  0  0  0  0  0  0  0  0
   35.1618   35.2867   34.9055 C   0  0  0  0  0  0  0  0  0  0  0  0
   35.5242   36.0229   33.7012 C   0  0  0  0  0  0  0  0  0  0  0  0
   35.1364   37.3251   33.4618 C   0  0  0  0  0  0  0  0  0  0  0  0
   35.4895   38.0136   32.3095 C   0  0  0  0  0  0  0  0  0  0  0  0
   36.2588   37.3920   31.3502 C   0  0  0  0  0  0  0  0  0  0  0  0
   36.6614   36.0921   31.5609 C   0  0  0  0  0  0  0  0  0  0  0  0
   36.2989   35.4284   32.7123 C   0  0  0  0  0  0  0  0  0  0  0  0
   36.6444   38.0238   30.1796 O   0  0  0  0  0  0  0  0  0  0  0  0
   33.6030   31.2327   38.1097 O   0  0  0  0  0  0  0  0  0  0  0  0
   36.2944   34.3732   40.6204 O   0  0  0  0  0  0  0  0  0  0  0  0
  1  2  2  0
  2  3  1  0
  3  4  2  0
  4  5  1  0
  1  6  1  0
  5  6  2  0
  5  7  1  0
  7  8  2  0
  8  9  1  0
  9 10  2  0
 10 11  1  0
 11 12  2  0
 12 13  1  0
  9 14  1  0
 13 14  2  0
 12 15  1  0
  3 16  1  0
  1 17  1  0
M  END
$$$$
