7FT9_4MB_C_301
     RDKit          3D

 23 23  0  0  0  0  0  0  0  0999 V2000
    0.5415   -0.9249   -4.4068 C   0  0  0  0  0  0  0  0  0  0  0  0
    1.0156   -2.2087   -2.3965 C   0  0  0  0  0  0  0  0  0  0  0  0
   -0.9970    0.9816   -4.3891 N   0  0  0  0  0  0  0  0  0  0  0  0
   -0.3280   -0.0864   -3.6928 C   0  0  0  0  0  0  0  0  0  0  0  0
    1.2081   -1.9736   -3.7673 C   0  0  0  0  0  0  0  0  0  0  0  0
    1.7228   -3.3196   -1.7219 C   0  0  0  0  0  0  0  0  0  0  0  0
    0.1406   -1.3745   -1.6801 C   0  0  0  0  0  0  0  0  0  0  0  0
   -1.8557    2.4954   -6.6894 C   0  0  0  0  0  0  0  0  0  0  0  0
   -0.5260   -0.3257   -2.3208 C   0  0  0  0  0  0  0  0  0  0  0  0
    1.5824   -4.5055   -2.1265 O   0  0  0  0  0  0  0  0  0  0  0  0
    2.5512   -3.0652   -0.6317 O   0  0  0  0  0  0  0  0  0  0  0  0
   -1.6136    0.8684   -6.0082 S   0  0  1  0  0  6  0  0  0  0  0  0
   -0.6114    0.1399   -6.8586 O   0  0  0  0  0  0  0  0  0  0  0  0
   -2.9032    0.0969   -6.0166 O   0  0  0  0  0  0  0  0  0  0  0  0
    0.7070   -0.7633   -5.4648 H   0  0  0  0  0  0  0  0  0  0  0  0
   -1.1858    1.8738   -3.8794 H   0  0  0  0  0  0  0  0  0  0  0  0
    1.8740   -2.5993   -4.3482 H   0  0  0  0  0  0  0  0  0  0  0  0
   -0.0320   -1.5330   -0.6229 H   0  0  0  0  0  0  0  0  0  0  0  0
   -2.6158    3.0476   -6.1013 H   0  0  0  0  0  0  0  0  0  0  0  0
   -2.2000    2.4091   -7.7407 H   0  0  0  0  0  0  0  0  0  0  0  0
   -0.8971    3.0532   -6.6618 H   0  0  0  0  0  0  0  0  0  0  0  0
   -1.1961    0.2839   -1.7342 H   0  0  0  0  0  0  0  0  0  0  0  0
    3.0398   -3.8184   -0.1626 H   0  0  0  0  0  0  0  0  0  0  0  0
  1  4  4  0
  3  4  1  0
  1  5  4  0
  2  5  4  0
  2  6  1  0
  2  7  4  0
  4  9  4  0
  7  9  4  0
  6 10  2  0
  6 11  1  0
 12  3  1  1
  8 12  1  0
 12 13  2  0
 12 14  2  0
  1 15  1  0
  3 16  1  0
  5 17  1  0
  7 18  1  0
  8 19  1  0
  8 20  1  0
  8 21  1  0
  9 22  1  0
 11 23  1  0
M  END
