7ZU2_DHT_A_1001
     RDKit          3D

 51 54  0  0  0  0  0  0  0  0999 V2000
  -23.9899    4.4980   -5.5484 C   0  0  1  0  0  0  0  0  0  0  0  0
  -23.5287    5.9006   -6.0097 C   0  0  2  0  0  0  0  0  0  0  0  0
  -24.6614    6.8092   -6.3956 C   0  0  0  0  0  0  0  0  0  0  0  0
  -24.6305    7.9871   -6.0745 O   0  0  0  0  0  0  0  0  0  0  0  0
  -25.8001    6.3004   -7.2327 C   0  0  1  0  0  0  0  0  0  0  0  0
  -25.7541    4.7649   -7.3748 C   0  0  2  0  0  0  0  0  0  0  0  0
  -27.0560    4.2546   -8.0239 C   0  0  1  0  0  0  0  0  0  0  0  0
  -27.0104    2.7427   -8.2448 C   0  0  2  0  0  0  0  0  0  0  0  0
  -26.7635    1.9959   -6.9218 C   0  0  2  0  0  0  0  0  0  0  0  0
  -25.4304    2.4901   -6.2645 C   0  0  1  0  0  0  0  0  0  0  0  0
  -25.4218    4.0492   -6.0165 C   0  0  1  0  0  0  0  0  0  0  0  0
  -25.0374    1.6399   -5.0112 C   0  0  2  0  0  0  0  0  0  0  0  0
  -25.0625    0.1161   -5.2805 C   0  0  1  0  0  0  0  0  0  0  0  0
  -26.4198   -0.3189   -5.8760 C   0  0  1  0  0  0  0  0  0  0  0  0
  -26.6430    0.4766   -7.1679 C   0  0  1  0  0  0  0  0  0  0  0  0
  -27.7729   -0.2560   -7.8794 C   0  0  1  0  0  0  0  0  0  0  0  0
  -27.5458   -1.7343   -7.5138 C   0  0  2  0  0  0  0  0  0  0  0  0
  -26.4474   -1.7596   -6.4292 C   0  0  2  0  0  0  0  0  0  0  0  0
  -26.7370   -2.7203   -5.4464 O   0  0  0  0  0  0  0  0  0  0  0  0
  -27.5572   -0.1433   -4.8178 C   0  0  1  0  0  0  0  0  0  0  0  0
  -26.4481    4.4464   -4.9114 C   0  0  1  0  0  0  0  0  0  0  0  0
  -23.2235    3.7837   -5.9219 H   0  0  0  0  0  0  0  0  0  0  0  0
  -23.9185    4.4474   -4.4392 H   0  0  0  0  0  0  0  0  0  0  0  0
  -22.8707    5.7933   -6.8994 H   0  0  0  0  0  0  0  0  0  0  0  0
  -22.9192    6.3706   -5.2068 H   0  0  0  0  0  0  0  0  0  0  0  0
  -26.7585    6.6151   -6.7655 H   0  0  0  0  0  0  0  0  0  0  0  0
  -25.7463    6.7709   -8.2384 H   0  0  0  0  0  0  0  0  0  0  0  0
  -24.9295    4.5330   -8.0891 H   0  0  0  0  0  0  0  0  0  0  0  0
  -27.9389    4.5157   -7.4023 H   0  0  0  0  0  0  0  0  0  0  0  0
  -27.1918    4.7482   -9.0112 H   0  0  0  0  0  0  0  0  0  0  0  0
  -26.2102    2.5014   -8.9795 H   0  0  0  0  0  0  0  0  0  0  0  0
  -27.9816    2.4240   -8.6812 H   0  0  0  0  0  0  0  0  0  0  0  0
  -27.6293    2.1951   -6.2608 H   0  0  0  0  0  0  0  0  0  0  0  0
  -24.6277    2.2906   -7.0127 H   0  0  0  0  0  0  0  0  0  0  0  0
  -25.7031    1.8574   -4.1558 H   0  0  0  0  0  0  0  0  0  0  0  0
  -24.0101    1.9040   -4.6844 H   0  0  0  0  0  0  0  0  0  0  0  0
  -24.2359   -0.1365   -5.9810 H   0  0  0  0  0  0  0  0  0  0  0  0
  -24.8690   -0.4305   -4.3321 H   0  0  0  0  0  0  0  0  0  0  0  0
  -25.7471    0.3374   -7.8238 H   0  0  0  0  0  0  0  0  0  0  0  0
  -28.7613    0.0935   -7.5093 H   0  0  0  0  0  0  0  0  0  0  0  0
  -27.7203   -0.1044   -8.9796 H   0  0  0  0  0  0  0  0  0  0  0  0
  -27.2172   -2.3118   -8.4053 H   0  0  0  0  0  0  0  0  0  0  0  0
  -28.4930   -2.1763   -7.1336 H   0  0  0  0  0  0  0  0  0  0  0  0
  -25.4748   -2.0051   -6.9197 H   0  0  0  0  0  0  0  0  0  0  0  0
  -25.9231   -2.7993   -4.8837 H   0  0  0  0  0  0  0  0  0  0  0  0
  -27.3450   -0.7678   -3.9241 H   0  0  0  0  0  0  0  0  0  0  0  0
  -27.6640    0.8971   -4.4590 H   0  0  0  0  0  0  0  0  0  0  0  0
  -28.5438   -0.4565   -5.2175 H   0  0  0  0  0  0  0  0  0  0  0  0
  -27.4701    4.0855   -5.1347 H   0  0  0  0  0  0  0  0  0  0  0  0
  -26.1553    4.0497   -3.9197 H   0  0  0  0  0  0  0  0  0  0  0  0
  -26.5003    5.5461   -4.7829 H   0  0  0  0  0  0  0  0  0  0  0  0
  1  2  1  0
  2  3  1  0
  3  4  2  0
  3  5  1  0
  6  5  1  0
  6  7  1  0
  7  8  1  0
  9  8  1  0
  9 10  1  0
  1 11  1  0
  6 11  1  0
 11 10  1  6
 10 12  1  0
 12 13  1  0
 13 14  1  0
  9 15  1  0
 14 15  1  0
 15 16  1  0
 16 17  1  0
 14 18  1  6
 17 18  1  0
 18 19  1  0
 14 20  1  0
 11 21  1  0
  1 22  1  6
  1 23  1  0
  2 24  1  6
  2 25  1  0
  5 26  1  1
  5 27  1  0
  6 28  1  6
  7 29  1  1
  7 30  1  0
  8 31  1  6
  8 32  1  0
  9 33  1  1
 10 34  1  6
 12 35  1  1
 12 36  1  0
 13 37  1  6
 13 38  1  0
 15 39  1  6
 16 40  1  1
 16 41  1  0
 17 42  1  6
 17 43  1  0
 18 44  1  6
 19 45  1  0
 20 46  1  1
 20 47  1  0
 20 48  1  0
 21 49  1  6
 21 50  1  0
 21 51  1  0
M  END
