7FHA_ADX_A_1001
     RDKit          3D

 41 43  0  0  0  0  0  0  0  0999 V2000
  -26.8772   15.4333  -16.3067 S   0  0  1  0  0  6  0  0  0  0  0  0
  -27.5311   16.7303  -16.6971 O   0  0  0  0  0  0  0  0  0  0  0  0
  -26.8690   15.2952  -14.8097 O   0  0  0  0  0  0  0  0  0  0  0  0
  -27.7626   14.1649  -16.9645 O   0  0  0  0  0  0  0  0  0  0  0  0
  -24.8452   16.8899  -17.4534 P   0  0  2  0  0  5  0  0  0  0  0  0
  -23.3908   17.1221  -17.1087 O   0  0  0  0  0  0  0  0  0  0  0  0
  -25.7737   18.0842  -16.6925 O   0  0  0  0  0  0  0  0  0  0  0  0
  -25.2971   15.3401  -16.9069 O   0  0  0  0  0  0  0  0  0  0  0  0
  -25.0495   17.0222  -19.1424 O   0  0  0  0  0  0  0  0  0  0  0  0
  -24.2476   16.0448  -19.7646 C   0  0  2  0  0  0  0  0  0  0  0  0
  -23.1075   15.6355  -18.8223 C   0  0  1  0  0  0  0  0  0  0  0  0
  -22.1952   16.7102  -18.7154 O   0  0  0  0  0  0  0  0  0  0  0  0
  -23.6159   15.2719  -17.4210 C   0  0  1  0  0  0  0  0  0  0  0  0
  -22.8950   14.1866  -16.8823 O   0  0  0  0  0  0  0  0  0  0  0  0
  -23.3869   16.5466  -16.6450 C   0  0  1  0  0  0  0  0  0  0  0  0
  -23.0692   16.3060  -15.2987 O   0  0  0  0  0  0  0  0  0  0  0  0
  -22.2128   17.1768  -17.3818 C   0  0  2  0  0  0  0  0  0  0  0  0
  -22.3124   18.6372  -17.3592 N   0  0  0  0  0  0  0  0  0  0  0  0
  -22.7662   19.4625  -18.3394 C   0  0  0  0  0  0  0  0  0  0  0  0
  -22.8320   20.7684  -17.9583 N   0  0  0  0  0  0  0  0  0  0  0  0
  -22.4072   20.7265  -16.6813 C   0  0  0  0  0  0  0  0  0  0  0  0
  -22.2831   21.7566  -15.7561 C   0  0  0  0  0  0  0  0  0  0  0  0
  -22.5944   23.1094  -16.0897 N   0  0  0  0  0  0  0  0  0  0  0  0
  -21.8546   21.4308  -14.4996 N   0  0  0  0  0  0  0  0  0  0  0  0
  -21.5598   20.1347  -14.1585 C   0  0  0  0  0  0  0  0  0  0  0  0
  -21.6882   19.1292  -15.0761 N   0  0  0  0  0  0  0  0  0  0  0  0
  -22.1065   19.4578  -16.3224 C   0  0  0  0  0  0  0  0  0  0  0  0
  -28.1688   14.5362  -17.7883 H   0  0  0  0  0  0  0  0  0  0  0  0
  -25.3546   18.2028  -15.8029 H   0  0  0  0  0  0  0  0  0  0  0  0
  -23.8070   16.4359  -20.7095 H   0  0  0  0  0  0  0  0  0  0  0  0
  -24.8461   15.1327  -19.9904 H   0  0  0  0  0  0  0  0  0  0  0  0
  -22.5817   14.7660  -19.2757 H   0  0  0  0  0  0  0  0  0  0  0  0
  -24.6952   15.0073  -17.4145 H   0  0  0  0  0  0  0  0  0  0  0  0
  -22.0067   14.5177  -16.5856 H   0  0  0  0  0  0  0  0  0  0  0  0
  -24.2882   17.2008  -16.7240 H   0  0  0  0  0  0  0  0  0  0  0  0
  -23.8958   15.9560  -14.8749 H   0  0  0  0  0  0  0  0  0  0  0  0
  -21.2559   16.8683  -16.9032 H   0  0  0  0  0  0  0  0  0  0  0  0
  -23.0616   19.1203  -19.3224 H   0  0  0  0  0  0  0  0  0  0  0  0
  -21.8929   23.7017  -16.5870 H   0  0  0  0  0  0  0  0  0  0  0  0
  -23.5209   23.5243  -15.8445 H   0  0  0  0  0  0  0  0  0  0  0  0
  -21.2254   19.9066  -13.1559 H   0  0  0  0  0  0  0  0  0  0  0  0
  1  2  2  0
  1  3  2  0
  1  4  1  6
  5  6  2  0
  5  7  1  1
  1  8  1  0
  5  8  1  0
  5  9  1  0
  9 10  1  0
 11 10  1  0
 11 12  1  0
 11 13  1  0
 13 14  1  0
 13 15  1  0
 15 16  1  0
 12 17  1  0
 15 17  1  0
 17 18  1  0
 18 19  1  0
 19 20  2  0
 20 21  1  0
 21 22  2  0
 22 23  1  0
 22 24  1  0
 24 25  2  0
 25 26  1  0
 18 27  1  0
 21 27  1  0
 26 27  2  0
  4 28  1  0
  7 29  1  0
 10 30  1  6
 10 31  1  0
 11 32  1  6
 13 33  1  6
 14 34  1  0
 15 35  1  1
 16 36  1  0
 17 37  1  1
 19 38  1  0
 23 39  1  0
 23 40  1  0
 25 41  1  0
M  END
