7P2W_4QR_A_301
     RDKit          3D

 49 52  0  0  0  0  0  0  0  0999 V2000
  -26.7041    9.9656   -3.0282 N   0  0  0  0  0  0  0  0  0  0  0  0
  -23.6000    5.7367   -2.2648 N   0  0  0  0  0  0  0  0  0  0  0  0
  -28.3814   11.7160   -3.4453 C   0  0  0  0  0  0  0  0  0  0  0  0
  -27.0742   11.1891   -3.4865 C   0  0  0  0  0  0  0  0  0  0  0  0
  -26.0367   11.9386   -4.0228 C   0  0  0  0  0  0  0  0  0  0  0  0
  -25.3774    9.7529   -3.2011 C   0  0  0  0  0  0  0  0  0  0  0  0
  -27.7765   15.1186   -5.0527 C   0  0  0  0  0  0  0  0  0  0  0  0
  -30.8434    9.3935   -1.8250 C   0  0  0  0  0  0  0  0  0  0  0  0
  -33.4159    8.7764   -0.8902 C   0  0  0  0  0  0  0  0  0  0  0  0
  -31.0907    8.1611   -1.1964 C   0  0  0  0  0  0  0  0  0  0  0  0
  -25.2724    7.5675   -1.9294 C   0  0  0  0  0  0  0  0  0  0  0  0
  -23.6307    4.7599   -0.2515 C   0  0  0  0  0  0  0  0  0  0  0  0
  -23.0918    4.7332   -1.5229 C   0  0  0  0  0  0  0  0  0  0  0  0
  -22.0489    3.7798   -2.0125 C   0  0  1  0  0  0  0  0  0  0  0  0
  -26.2280   13.2154   -4.5372 C   0  0  0  0  0  0  0  0  0  0  0  0
  -27.5255   13.7647   -4.5115 C   0  0  0  0  0  0  0  0  0  0  0  0
  -28.5890   13.0078   -3.9640 C   0  0  0  0  0  0  0  0  0  0  0  0
  -24.6038   11.0659   -3.9324 S   0  0  0  0  0  0  0  0  0  0  0  0
  -28.1519   15.2848   -6.3833 O   0  0  0  0  0  0  0  0  0  0  0  0
  -27.6503   16.1342   -4.3163 O   0  0  0  0  0  0  0  0  0  0  0  0
  -29.4917   11.0352   -2.9169 O   0  0  0  0  0  0  0  0  0  0  0  0
  -29.4739    9.7313   -2.3422 C   0  0  1  0  0  0  0  0  0  0  0  0
  -31.8939   10.3096   -1.9835 C   0  0  0  0  0  0  0  0  0  0  0  0
  -33.1723   10.0011   -1.5170 C   0  0  0  0  0  0  0  0  0  0  0  0
  -32.3782    7.8429   -0.7248 C   0  0  0  0  0  0  0  0  0  0  0  0
  -32.6421    6.5448   -0.0648 C   0  0  0  0  0  0  0  0  0  0  0  0
  -31.7997    5.6088   -0.1360 O   0  0  0  0  0  0  0  0  0  0  0  0
  -33.8274    6.3425    0.6378 O   0  0  0  0  0  0  0  0  0  0  0  0
  -24.7052    8.5462   -2.8172 N   0  0  0  0  0  0  0  0  0  0  0  0
  -24.4769    6.4026   -1.4820 C   0  0  0  0  0  0  0  0  0  0  0  0
  -24.5204    5.8142   -0.2236 C   0  0  0  0  0  0  0  0  0  0  0  0
  -26.4552    7.7012   -1.5156 O   0  0  0  0  0  0  0  0  0  0  0  0
  -25.4892    6.3013    1.1587 Cl  0  0  0  0  0  0  0  0  0  0  0  0
  -23.2613    3.6678    1.0723 Cl  0  0  0  0  0  0  0  0  0  0  0  0
  -23.3673    5.9333   -3.2636 H   0  0  0  0  0  0  0  0  0  0  0  0
  -34.4166    8.5616   -0.5360 H   0  0  0  0  0  0  0  0  0  0  0  0
  -30.2808    7.4514   -1.0783 H   0  0  0  0  0  0  0  0  0  0  0  0
  -22.2797    3.4577   -3.0499 H   0  0  0  0  0  0  0  0  0  0  0  0
  -21.0568    4.2780   -2.0000 H   0  0  0  0  0  0  0  0  0  0  0  0
  -22.0188    2.8814   -1.3613 H   0  0  0  0  0  0  0  0  0  0  0  0
  -25.3888   13.7631   -4.9477 H   0  0  0  0  0  0  0  0  0  0  0  0
  -29.5904   13.4194   -3.9376 H   0  0  0  0  0  0  0  0  0  0  0  0
  -27.4587   15.4595   -7.1012 H   0  0  0  0  0  0  0  0  0  0  0  0
  -28.7277    9.6999   -1.5183 H   0  0  0  0  0  0  0  0  0  0  0  0
  -29.1953    8.9832   -3.1148 H   0  0  0  0  0  0  0  0  0  0  0  0
  -31.7211   11.2616   -2.4703 H   0  0  0  0  0  0  0  0  0  0  0  0
  -33.9778   10.7131   -1.6412 H   0  0  0  0  0  0  0  0  0  0  0  0
  -33.8218    5.9092    1.5533 H   0  0  0  0  0  0  0  0  0  0  0  0
  -23.7384    8.4039   -3.1826 H   0  0  0  0  0  0  0  0  0  0  0  0
  3  4  2  0
  1  4  1  0
  4  5  1  0
  1  6  2  0
  8 10  1  0
 12 13  2  0
  2 13  1  0
 13 14  1  0
  5 15  2  0
 15 16  1  0
  7 16  1  0
  3 17  1  0
 16 17  2  0
  6 18  1  0
  5 18  1  0
  7 19  1  0
  7 20  2  0
  3 21  1  0
  8 22  1  0
 21 22  1  0
  8 23  2  0
  9 24  2  0
 23 24  1  0
  9 25  1  0
 10 25  2  0
 25 26  1  0
 26 27  2  0
 26 28  1  0
  6 29  1  0
 11 29  1  0
 11 30  1  0
  2 30  1  0
 12 31  1  0
 30 31  2  0
 11 32  2  0
 31 33  1  0
 12 34  1  0
  2 35  1  0
  9 36  1  0
 10 37  1  0
 14 38  1  6
 14 39  1  0
 14 40  1  0
 15 41  1  0
 17 42  1  0
 19 43  1  0
 22 44  1  1
 22 45  1  0
 23 46  1  0
 24 47  1  0
 28 48  1  0
 29 49  1  0
M  END
