7PGX_FMN_AAA_618
     RDKit          3D

 31 33  0  0  0  0  0  0  0  0999 V2000
  -20.6067    0.8680   -5.6899 N   0  0  0  0  0  0  0  0  0  0  0  0
  -20.8399   -0.3511   -5.2093 C   0  0  0  0  0  0  0  0  0  0  0  0
  -22.0201   -0.6915   -4.9320 O   0  0  0  0  0  0  0  0  0  0  0  0
  -19.8194   -1.2213   -5.0184 N   0  0  0  0  0  0  0  0  0  0  0  0
  -18.5349   -0.8896   -5.3058 C   0  0  0  0  0  0  0  0  0  0  0  0
  -17.6000   -1.7159   -5.1202 O   0  0  0  0  0  0  0  0  0  0  0  0
  -18.2452    0.3742   -5.8103 C   0  0  0  0  0  0  0  0  0  0  0  0
  -17.0050    0.7659   -6.1141 N   0  0  0  0  0  0  0  0  0  0  0  0
  -16.8569    2.0308   -6.6008 C   0  0  0  0  0  0  0  0  0  0  0  0
  -15.5565    2.3968   -6.9028 C   0  0  0  0  0  0  0  0  0  0  0  0
  -15.3112    3.6617   -7.4019 C   0  0  0  0  0  0  0  0  0  0  0  0
  -13.8921    4.0184   -7.7158 C   0  0  0  0  0  0  0  0  0  0  0  0
  -16.3586    4.5243   -7.5865 C   0  0  0  0  0  0  0  0  0  0  0  0
  -16.0372    5.8779   -8.1281 C   0  0  0  0  0  0  0  0  0  0  0  0
  -17.6606    4.1476   -7.2803 C   0  0  0  0  0  0  0  0  0  0  0  0
  -17.9199    2.8813   -6.7789 C   0  0  0  0  0  0  0  0  0  0  0  0
  -19.1975    2.5471   -6.4915 N   0  0  0  0  0  0  0  0  0  0  0  0
  -19.3651    1.2837   -6.0029 C   0  0  0  0  0  0  0  0  0  0  0  0
  -20.3109    3.4192   -6.6710 C   0  0  0  0  0  0  0  0  0  0  0  0
  -20.9564    3.2430   -8.0529 C   0  0  2  0  0  0  0  0  0  0  0  0
  -19.9744    3.3081   -9.0395 O   0  0  0  0  0  0  0  0  0  0  0  0
  -21.9049    4.3805   -8.3199 C   0  0  2  0  0  0  0  0  0  0  0  0
  -21.3184    5.6273   -8.1659 O   0  0  0  0  0  0  0  0  0  0  0  0
  -23.1432    4.2003   -7.4929 C   0  0  2  0  0  0  0  0  0  0  0  0
  -23.9277    3.2509   -8.1549 O   0  0  0  0  0  0  0  0  0  0  0  0
  -23.9282    5.5170   -7.5019 C   0  0  0  0  0  0  0  0  0  0  0  0
  -23.9299    6.0920   -8.7619 O   0  0  0  0  0  0  0  0  0  0  0  0
  -25.3208    5.7920   -9.6442 P   0  0  2  0  0  5  0  0  0  0  0  0
  -26.3656    5.2892   -8.6558 O   0  0  0  0  0  0  0  0  0  0  0  0
  -25.0683    4.6432  -10.8416 O   0  0  0  0  0  0  0  0  0  0  0  0
  -25.9841    7.2097  -10.3172 O   0  0  0  0  0  0  0  0  0  0  0  0
  1  2  1  0
  2  3  2  0
  2  4  1  0
  4  5  1  0
  5  6  2  0
  5  7  1  0
  7  8  2  0
  8  9  1  0
  9 10  1  0
 10 11  2  0
 12 11  1  6
 11 13  1  0
 14 13  1  1
 13 15  2  0
  9 16  2  0
 15 16  1  0
 16 17  1  0
  1 18  2  0
  7 18  1  0
 17 18  1  0
 19 17  1  6
 19 20  1  0
 20 21  1  6
 20 22  1  0
 22 23  1  1
 22 24  1  0
 24 25  1  6
 24 26  1  0
 26 27  1  1
 27 28  1  0
 28 29  2  0
 28 30  1  6
 28 31  1  0
M  END
$$$$
