7JNB_A2G_A_503
     RDKit          3D

 30 30  0  0  0  0  0  0  0  0999 V2000
   56.8197    8.2909  113.4865 O   0  0  0  0  0  0  0  0  0  0  0  0
   57.6815    8.2947  114.6372 C   0  0  1  0  0  0  0  0  0  0  0  0
   59.0092    8.0910  114.1767 O   0  0  0  0  0  0  0  0  0  0  0  0
   57.6373    9.6108  115.4220 C   0  0  1  0  0  0  0  0  0  0  0  0
   58.6800    9.6830  116.4421 N   0  0  0  0  0  0  0  0  0  0  0  0
   57.7765   10.7990  114.4691 C   0  0  2  0  0  0  0  0  0  0  0  0
   57.7219   12.0111  115.2294 O   0  0  0  0  0  0  0  0  0  0  0  0
   56.7608   10.7093  113.3267 C   0  0  2  0  0  0  0  0  0  0  0  0
   55.4185   10.7296  113.8277 O   0  0  0  0  0  0  0  0  0  0  0  0
   56.9920    9.3874  112.5860 C   0  0  2  0  0  0  0  0  0  0  0  0
   56.0336    9.1903  111.4236 C   0  0  0  0  0  0  0  0  0  0  0  0
   56.4135    8.0484  110.6319 O   0  0  0  0  0  0  0  0  0  0  0  0
   59.5016   10.7283  116.5097 C   0  0  0  0  0  0  0  0  0  0  0  0
   59.7645   11.2464  117.5821 O   0  0  0  0  0  0  0  0  0  0  0  0
   60.0695   11.2250  115.2198 C   0  0  0  0  0  0  0  0  0  0  0  0
   57.3494    7.5235  115.3006 H   0  0  0  0  0  0  0  0  0  0  0  0
   59.2596    8.8149  113.5815 H   0  0  0  0  0  0  0  0  0  0  0  0
   56.6898    9.6474  115.9178 H   0  0  0  0  0  0  0  0  0  0  0  0
   58.7768    8.9476  117.0895 H   0  0  0  0  0  0  0  0  0  0  0  0
   58.7277   10.7858  113.9794 H   0  0  0  0  0  0  0  0  0  0  0  0
   56.8712   12.0644  115.6923 H   0  0  0  0  0  0  0  0  0  0  0  0
   56.8910   11.5484  112.6757 H   0  0  0  0  0  0  0  0  0  0  0  0
   55.2832    9.9740  114.4208 H   0  0  0  0  0  0  0  0  0  0  0  0
   57.9896    9.4255  112.2010 H   0  0  0  0  0  0  0  0  0  0  0  0
   55.0458    9.0386  111.8060 H   0  0  0  0  0  0  0  0  0  0  0  0
   56.0646   10.0617  110.8036 H   0  0  0  0  0  0  0  0  0  0  0  0
   56.3894    7.2505  111.1829 H   0  0  0  0  0  0  0  0  0  0  0  0
   59.7042   10.6232  114.4139 H   0  0  0  0  0  0  0  0  0  0  0  0
   59.7735   12.2420  115.0679 H   0  0  0  0  0  0  0  0  0  0  0  0
   61.1373   11.1655  115.2539 H   0  0  0  0  0  0  0  0  0  0  0  0
  1  2  1  0
  2  3  1  0
  2  4  1  0
  4  5  1  0
  4  6  1  0
  6  7  1  0
  6  8  1  0
  8  9  1  0
  1 10  1  0
  8 10  1  0
 10 11  1  0
 11 12  1  0
  5 13  1  0
 13 14  2  0
 13 15  1  0
  2 16  1  6
  3 17  1  0
  4 18  1  6
  5 19  1  0
  6 20  1  1
  7 21  1  0
  8 22  1  1
  9 23  1  0
 10 24  1  1
 11 25  1  0
 11 26  1  0
 12 27  1  0
 15 28  1  0
 15 29  1  0
 15 30  1  0
M  END
