6Z0R_Q4H_A_301
     RDKit          3D

  9  9  0  0  0  0  0  0  0  0999 V2000
   37.3102    9.9307   70.4940 N   0  0  0  0  0  0  0  0  0  0  0  0
   37.5187    8.9244   70.0205 C   0  0  0  0  0  0  0  0  0  0  0  0
   37.7952    7.5788   69.4008 C   0  0  0  0  0  0  0  0  0  0  0  0
   38.4605    6.6238   70.1468 C   0  0  0  0  0  0  0  0  0  0  0  0
   38.7156    5.4306   69.5982 N   0  0  0  0  0  0  0  0  0  0  0  0
   38.3396    5.1392   68.3484 C   0  0  0  0  0  0  0  0  0  0  0  0
   37.6956    6.0540   67.6092 N   0  0  0  0  0  0  0  0  0  0  0  0
   37.4073    7.2664   68.0977 C   0  0  0  0  0  0  0  0  0  0  0  0
   36.7118    8.1855   67.2776 N   0  0  0  0  0  0  0  0  0  0  0  0
  1  2  3  0
  2  3  1  0
  3  4  2  0
  4  5  1  0
  5  6  2  0
  6  7  1  0
  7  8  2  0
  3  8  1  0
  8  9  1  0
M  END
