
     RDKit          3D

 26 27  0  0  0  0  0  0  0  0999 V2000
   -1.0410    9.2600  -23.3023 N   0  0  0  0  0  0  0  0  0  0  0  0
    0.0187    8.5607  -23.7354 C   0  0  0  0  0  0  0  0  0  0  0  0
   -0.2304    7.2680  -24.4462 C   0  0  0  0  0  0  0  0  0  0  0  0
    1.2933    8.9549  -23.5709 N   0  0  0  0  0  0  0  0  0  0  0  0
    1.5076   10.1108  -22.9347 C   0  0  0  0  0  0  0  0  0  0  0  0
    2.8506   10.4390  -22.7340 N   0  0  0  0  0  0  0  0  0  0  0  0
    0.4885   10.9181  -22.4789 C   0  0  0  0  0  0  0  0  0  0  0  0
   -0.7853   10.4204  -22.6800 C   0  0  0  0  0  0  0  0  0  0  0  0
    0.7237   12.2772  -21.9006 C   0  0  0  0  0  0  0  0  0  0  0  0
    1.3853   12.1723  -20.5846 N   0  0  0  0  0  4  0  0  0  0  0  0
    2.6340   12.5803  -20.4420 C   0  0  0  0  0  0  0  0  0  0  0  0
    3.1973   12.3440  -18.8508 S   0  0  0  0  0  0  0  0  0  0  0  0
    1.6748   11.7548  -18.3420 C   0  0  0  0  0  0  0  0  0  0  0  0
    0.7990   11.7094  -19.4133 C   0  0  0  0  0  0  0  0  0  0  0  0
   -0.6224   11.2764  -19.3965 C   0  0  0  0  0  0  0  0  0  0  0  0
    1.4532   11.4271  -16.8925 C   0  0  0  0  0  0  0  0  0  0  0  0
    2.7449   11.5337  -16.0826 C   0  0  0  0  0  0  0  0  0  0  0  0
    2.9394   10.3451  -15.3281 O   0  0  0  0  0  0  0  0  0  0  0  0
    3.5790    9.0679  -16.0616 P   0  0  2  0  0  5  0  0  0  0  0  0
    3.3623    9.0350  -17.5392 O   0  0  0  0  0  0  0  0  0  0  0  0
    2.9670    7.8481  -15.2361 O   0  0  0  0  0  0  0  0  0  0  0  0
    5.0925    9.1075  -15.6211 O   0  0  0  0  0  0  0  0  0  0  0  0
    5.6200    9.5089  -14.1902 P   0  0  0  0  0  5  0  0  0  0  0  0
    5.4298    8.4886  -13.1200 O   0  0  0  0  0  0  0  0  0  0  0  0
    7.1588    9.8717  -14.3926 O   0  0  0  0  0  0  0  0  0  0  0  0
    5.0044   10.9520  -13.8753 O   0  0  0  0  0  0  0  0  0  0  0  0
  1  2  4  0
  2  3  1  0
  2  4  4  0
  4  5  4  0
  5  6  1  0
  5  7  4  0
  1  8  4  0
  7  8  4  0
  7  9  1  0
  9 10  1  0
 10 11  4  0
 11 12  4  0
 12 13  4  0
 10 14  4  0
 13 14  4  0
 14 15  1  0
 13 16  1  0
 16 17  1  0
 17 18  1  0
 18 19  1  0
 19 20  2  0
 19 21  1  1
 19 22  1  0
 22 23  1  0
 23 24  2  0
 23 25  1  0
 23 26  1  0
M  CHG  1  10   1
M  END
