7NLV_UJE_CCC_201
     RDKit          3D

 21 23  0  0  0  0  0  0  0  0999 V2000
    9.8435    1.2315   14.6368 O   0  0  0  0  0  0  0  0  0  0  0  0
   -0.0258    1.2074   14.3155 O   0  0  0  0  0  0  0  0  0  0  0  0
    9.2544    0.1547   14.6643 C   0  0  0  0  0  0  0  0  0  0  0  0
    8.2392   -0.1379   15.7489 C   0  0  0  0  0  0  0  0  0  0  0  0
    6.8192    0.0645   15.3244 C   0  0  0  0  0  0  0  0  0  0  0  0
    5.8410   -0.5418   16.3203 C   0  0  0  0  0  0  0  0  0  0  0  0
    4.4574    0.0934   16.3502 C   0  0  0  0  0  0  0  0  0  0  0  0
    3.3282   -0.8994   16.6027 C   0  0  2  0  0  0  0  0  0  0  0  0
    3.0278   -2.0737   15.2312 S   0  0  0  0  0  0  0  0  0  0  0  0
    1.5461   -2.5705   16.1396 C   0  0  0  0  0  0  0  0  0  0  0  0
    0.8724   -1.2876   16.6212 C   0  0  2  0  0  0  0  0  0  0  0  0
    0.0669   -0.7060   15.5770 N   0  0  0  0  0  0  0  0  0  0  0  0
    0.5255    0.4897   15.1707 C   0  0  0  0  0  0  0  0  0  0  0  0
    1.6194    0.7920   15.9095 N   0  0  0  0  0  0  0  0  0  0  0  0
    1.9525   -0.2308   16.8714 C   0  0  2  0  0  0  0  0  0  0  0  0
    9.4471   -0.7906   13.7293 N   0  0  0  0  0  0  0  0  0  0  0  0
   10.6668   -1.5857   13.6756 C   0  0  1  0  0  0  0  0  0  0  0  0
   10.9919   -2.3289   14.9561 C   0  0  0  0  0  0  0  0  0  0  0  0
   11.9634   -3.4010   14.5074 C   0  0  0  0  0  0  0  0  0  0  0  0
   11.8486   -3.4765   13.0482 N   0  0  0  0  0  0  0  0  0  0  0  0
   10.6586   -2.7058   12.6574 C   0  0  0  0  0  0  0  0  0  0  0  0
  1  3  2  0
  3  4  1  0
  4  5  1  0
  5  6  1  0
  6  7  1  0
  8  7  1  6
  8  9  1  0
  9 10  1  0
 11 10  1  6
 11 12  1  0
 12 13  1  0
  2 13  2  0
 13 14  1  0
 11 15  1  0
 15 14  1  6
  8 15  1  0
  3 16  1  0
 17 16  1  1
 17 18  1  0
 18 19  1  0
 19 20  1  0
 17 21  1  0
 20 21  1  0
M  END
