6Z14_Q4Z_JJJ_1103
     RDKit          3D

 31 32  0  0  0  0  0  0  0  0999 V2000
   17.2719    3.1606    7.5069 O   0  0  0  0  0  0  0  0  0  0  0  0
   16.2256    5.2886    6.9062 O   0  0  0  0  0  0  0  0  0  0  0  0
   16.8393    4.5007    8.0299 S   0  0  1  0  0  6  0  0  0  0  0  0
   15.7015    4.2668    9.2449 O   0  0  0  0  0  1  0  0  0  0  0  0
   20.9578    6.9696   10.9828 C   0  0  1  0  0  0  0  0  0  0  0  0
   21.7133    8.0238   10.1371 C   0  0  1  0  0  0  0  0  0  0  0  0
   21.1718    8.1151    8.7024 C   0  0  2  0  0  0  0  0  0  0  0  0
   19.6268    8.2036    8.6829 C   0  0  1  0  0  0  0  0  0  0  0  0
   18.9742    7.2898    9.7648 C   0  0  1  0  0  0  0  0  0  0  0  0
   17.7679    6.5318    9.1984 C   0  0  1  0  0  0  0  0  0  0  0  0
   20.8428    9.0350   11.9505 C   0  0  0  0  0  0  0  0  0  0  0  0
   20.4730   10.1001   12.9272 C   0  0  2  0  0  0  0  0  0  0  0  0
   21.5046    9.2670   10.8697 N   0  0  0  0  0  4  0  0  0  0  0  0
   20.4831    7.7090   12.1015 O   0  0  0  0  0  0  0  0  0  0  0  0
   21.5911    6.9766    7.9929 O   0  0  0  0  0  0  0  0  0  0  0  0
   19.2215    9.5315    8.9032 O   0  0  0  0  0  0  0  0  0  0  0  0
   19.8946    6.3403   10.2811 O   0  0  0  0  0  0  0  0  0  0  0  0
   18.1951    5.3120    8.6398 O   0  0  0  0  0  0  0  0  0  0  0  0
   21.6653    6.1898   11.3371 H   0  0  0  0  0  0  0  0  0  0  0  0
   22.8025    7.7964   10.1163 H   0  0  0  0  0  0  0  0  0  0  0  0
   21.6085    9.0225    8.2216 H   0  0  0  0  0  0  0  0  0  0  0  0
   19.2828    7.8904    7.6677 H   0  0  0  0  0  0  0  0  0  0  0  0
   18.5750    7.9168   10.5957 H   0  0  0  0  0  0  0  0  0  0  0  0
   17.0347    6.3604   10.0189 H   0  0  0  0  0  0  0  0  0  0  0  0
   17.2948    7.1683    8.4167 H   0  0  0  0  0  0  0  0  0  0  0  0
   21.3675   10.7074   13.1791 H   0  0  0  0  0  0  0  0  0  0  0  0
   20.0751    9.6396   13.8553 H   0  0  0  0  0  0  0  0  0  0  0  0
   19.6949   10.7557   12.4837 H   0  0  0  0  0  0  0  0  0  0  0  0
   21.8660   10.2043   10.5822 H   0  0  0  0  0  0  0  0  0  0  0  0
   21.5169    7.1943    7.0268 H   0  0  0  0  0  0  0  0  0  0  0  0
   19.3096   10.0102    8.0376 H   0  0  0  0  0  0  0  0  0  0  0  0
  2  3  2  0
  1  3  2  0
  3  4  1  1
  5  6  1  0
  6  7  1  0
  7  8  1  0
  8  9  1  0
  9 10  1  0
 11 12  1  0
  6 13  1  0
 11 13  2  0
 11 14  1  0
  5 14  1  0
  7 15  1  0
  8 16  1  0
  9 17  1  0
  5 17  1  0
 10 18  1  0
  3 18  1  0
  5 19  1  1
  6 20  1  6
  7 21  1  6
  8 22  1  6
  9 23  1  1
 10 24  1  1
 10 25  1  0
 12 26  1  1
 12 27  1  0
 12 28  1  0
 13 29  1  0
 15 30  1  0
 16 31  1  0
M  CHG  2   4  -1  13   1
M  END
