1L7F_BCZ_A_801
     RDKit          3D

 23 23  0  0  0  0  0  0  0  0999 V2000
   12.9262   -2.9216   61.3015 C   0  0  1  0  0  0  0  0  0  0  0  0
   14.3301   -3.0873   61.4583 N   0  0  0  0  0  0  0  0  0  0  0  0
   15.0589   -2.3709   62.4800 C   0  0  0  0  0  0  0  0  0  0  0  0
   14.6952   -2.3903   63.6923 N   0  0  0  0  0  0  0  0  0  0  0  0
   16.2273   -1.6098   62.1445 N   0  0  0  0  0  0  0  0  0  0  0  0
   12.4293   -1.8419   60.4290 C   0  0  2  0  0  0  0  0  0  0  0  0
   12.7875   -0.4332   60.8264 C   0  0  2  0  0  0  0  0  0  0  0  0
   12.2799    0.5088   59.7734 C   0  0  2  0  0  0  0  0  0  0  0  0
   12.7409    1.9247   59.8691 C   0  0  0  0  0  0  0  0  0  0  0  0
   12.5057    2.8320   58.7280 C   0  0  0  0  0  0  0  0  0  0  0  0
   10.8456    0.3527   59.3993 C   0  0  0  0  0  0  0  0  0  0  0  0
   10.4742   -0.3902   58.1977 C   0  0  0  0  0  0  0  0  0  0  0  0
   14.1927   -0.3987   61.0841 N   0  0  0  0  0  0  0  0  0  0  0  0
   14.6254    0.1809   62.3384 C   0  0  0  0  0  0  0  0  0  0  0  0
   16.0705    0.3810   62.6163 C   0  0  0  0  0  0  0  0  0  0  0  0
   13.7984    0.5286   63.2213 O   0  0  0  0  0  0  0  0  0  0  0  0
   10.9411   -2.0900   60.4625 C   0  0  2  0  0  0  0  0  0  0  0  0
   10.3222   -1.4874   61.5524 O   0  0  0  0  0  0  0  0  0  0  0  0
   10.8071   -3.5914   60.6262 C   0  0  1  0  0  0  0  0  0  0  0  0
   10.0794   -4.1184   59.4397 C   0  0  0  0  0  0  0  0  0  0  0  0
   10.6357   -4.3650   58.3524 O   0  0  0  0  0  0  0  0  0  0  0  0
    8.7050   -4.3467   59.5542 O   0  0  0  0  0  0  0  0  0  0  0  0
   12.2461   -4.1180   60.6350 C   0  0  0  0  0  0  0  0  0  0  0  0
  1  2  1  6
  2  3  1  0
  3  4  2  0
  3  5  1  0
  6  1  1  1
  6  7  1  0
  7  8  1  0
  8  9  1  1
  9 10  1  0
  8 11  1  0
 11 12  1  0
  7 13  1  6
 13 14  1  0
 14 15  1  0
 14 16  2  0
  6 17  1  0
 17 18  1  1
 17 19  1  0
 19 20  1  6
 20 21  2  0
 20 22  1  0
  1 23  1  0
 19 23  1  0
M  END
$$$$
