1L7F_BCZ_A_801
     RDKit          3D

 23 23  0  0  0  0  0  0  0  0999 V2000
   14.5970   -0.8953   48.6165 C   0  0  1  0  0  0  0  0  0  0  0  0
   15.2967   -1.0327   49.8471 N   0  0  0  0  0  0  0  0  0  0  0  0
   16.2724   -0.0527   50.2669 C   0  0  0  0  0  0  0  0  0  0  0  0
   16.2491    1.1359   49.8323 N   0  0  0  0  0  0  0  0  0  0  0  0
   17.3051   -0.4043   51.1979 N   0  0  0  0  0  0  0  0  0  0  0  0
   14.7072   -1.9679   47.6107 C   0  0  2  0  0  0  0  0  0  0  0  0
   16.0848   -2.2446   47.0663 C   0  0  2  0  0  0  0  0  0  0  0  0
   15.9838   -3.3185   46.0220 C   0  0  2  0  0  0  0  0  0  0  0  0
   17.2715   -3.8510   45.4884 C   0  0  0  0  0  0  0  0  0  0  0  0
   17.2627   -5.1206   44.7343 C   0  0  0  0  0  0  0  0  0  0  0  0
   14.9240   -3.1252   44.9921 C   0  0  0  0  0  0  0  0  0  0  0  0
   14.0342   -4.2271   44.6346 C   0  0  0  0  0  0  0  0  0  0  0  0
   16.9436   -2.5173   48.1755 N   0  0  0  0  0  0  0  0  0  0  0  0
   18.1260   -1.6942   48.3200 C   0  0  0  0  0  0  0  0  0  0  0  0
   19.1526   -2.0244   49.3410 C   0  0  0  0  0  0  0  0  0  0  0  0
   18.3169   -0.6852   47.5922 O   0  0  0  0  0  0  0  0  0  0  0  0
   13.7536   -1.4811   46.5472 C   0  0  2  0  0  0  0  0  0  0  0  0
   14.3504   -0.5932   45.6587 O   0  0  0  0  0  0  0  0  0  0  0  0
   12.6843   -0.7236   47.3099 C   0  0  1  0  0  0  0  0  0  0  0  0
   11.3813   -1.3996   47.0650 C   0  0  0  0  0  0  0  0  0  0  0  0
   11.1769   -2.1566   46.0966 O   0  0  0  0  0  0  0  0  0  0  0  0
   10.3380   -1.1722   47.9672 O   0  0  0  0  0  0  0  0  0  0  0  0
   13.0776   -0.8619   48.7844 C   0  0  0  0  0  0  0  0  0  0  0  0
  1  2  1  1
  2  3  1  0
  3  4  2  0
  3  5  1  0
  6  1  1  1
  6  7  1  0
  7  8  1  0
  8  9  1  6
  9 10  1  0
  8 11  1  0
 11 12  1  0
  7 13  1  1
 13 14  1  0
 14 15  1  0
 14 16  2  0
  6 17  1  0
 17 18  1  6
 17 19  1  0
 19 20  1  1
 20 21  2  0
 20 22  1  0
  1 23  1  0
 19 23  1  0
M  END
$$$$
