1L7F_BCZ_A_801
     RDKit          3D

 23 23  0  0  0  0  0  0  0  0999 V2000
   17.5599   50.1694   63.3294 C   0  0  1  0  0  0  0  0  0  0  0  0
   17.3711   51.5677   63.5086 N   0  0  0  0  0  0  0  0  0  0  0  0
   16.2369   52.2503   62.9290 C   0  0  0  0  0  0  0  0  0  0  0  0
   15.1373   52.3542   63.5473 N   0  0  0  0  0  0  0  0  0  0  0  0
   16.3273   52.8351   61.6225 N   0  0  0  0  0  0  0  0  0  0  0  0
   18.9109   49.6049   63.5028 C   0  0  2  0  0  0  0  0  0  0  0  0
   19.9782   50.1065   62.5648 C   0  0  2  0  0  0  0  0  0  0  0  0
   21.3012   49.5400   62.9924 C   0  0  2  0  0  0  0  0  0  0  0  0
   22.4983   49.9935   62.2259 C   0  0  0  0  0  0  0  0  0  0  0  0
   23.8116   50.0200   62.9006 C   0  0  0  0  0  0  0  0  0  0  0  0
   21.3053   48.0904   63.3389 C   0  0  0  0  0  0  0  0  0  0  0  0
   22.5318   47.3067   63.2152 C   0  0  0  0  0  0  0  0  0  0  0  0
   19.8830   51.5317   62.5208 N   0  0  0  0  0  0  0  0  0  0  0  0
   19.6434   52.1434   61.2305 C   0  0  0  0  0  0  0  0  0  0  0  0
   19.6548   53.6212   61.0844 C   0  0  0  0  0  0  0  0  0  0  0  0
   19.4206   51.4481   60.2052 O   0  0  0  0  0  0  0  0  0  0  0  0
   18.6432   48.1291   63.3358 C   0  0  2  0  0  0  0  0  0  0  0  0
   18.6529   47.7306   62.0035 O   0  0  0  0  0  0  0  0  0  0  0  0
   17.2367   47.9330   63.8671 C   0  0  1  0  0  0  0  0  0  0  0  0
   17.3092   46.9939   65.0194 C   0  0  0  0  0  0  0  0  0  0  0  0
   18.3594   46.7690   65.6511 O   0  0  0  0  0  0  0  0  0  0  0  0
   16.1403   46.3337   65.4095 O   0  0  0  0  0  0  0  0  0  0  0  0
   16.7989   49.3203   64.3483 C   0  0  0  0  0  0  0  0  0  0  0  0
  1  2  1  1
  2  3  1  0
  3  4  2  0
  3  5  1  0
  6  1  1  6
  6  7  1  0
  7  8  1  0
  8  9  1  6
  9 10  1  0
  8 11  1  0
 11 12  1  0
  7 13  1  1
 13 14  1  0
 14 15  1  0
 14 16  2  0
  6 17  1  0
 17 18  1  6
 17 19  1  0
 19 20  1  1
 20 21  2  0
 20 22  1  0
  1 23  1  0
 19 23  1  0
M  END
$$$$
