1L7F_BCZ_A_801
     RDKit          3D

 23 23  0  0  0  0  0  0  0  0999 V2000
   19.7343   -1.8285   35.2410 C   0  0  1  0  0  0  0  0  0  0  0  0
   20.8474   -2.6095   34.8240 N   0  0  0  0  0  0  0  0  0  0  0  0
   21.0618   -3.9425   35.3395 C   0  0  0  0  0  0  0  0  0  0  0  0
   22.2229   -4.4360   35.4421 N   0  0  0  0  0  0  0  0  0  0  0  0
   19.9523   -4.7515   35.7536 N   0  0  0  0  0  0  0  0  0  0  0  0
   19.9604   -0.4338   35.6625 C   0  0  2  0  0  0  0  0  0  0  0  0
   20.8527   -0.2258   36.8588 C   0  0  2  0  0  0  0  0  0  0  0  0
   20.8563    1.2340   37.2097 C   0  0  2  0  0  0  0  0  0  0  0  0
   21.7600    1.6488   38.3221 C   0  0  0  0  0  0  0  0  0  0  0  0
   22.4389    2.9577   38.2417 C   0  0  0  0  0  0  0  0  0  0  0  0
   19.5247    1.9035   37.2166 C   0  0  0  0  0  0  0  0  0  0  0  0
   19.2863    3.0783   36.3820 C   0  0  0  0  0  0  0  0  0  0  0  0
   22.1225   -0.8094   36.5604 N   0  0  0  0  0  0  0  0  0  0  0  0
   22.6301   -1.8055   37.4804 C   0  0  0  0  0  0  0  0  0  0  0  0
   24.0284   -2.2926   37.3660 C   0  0  0  0  0  0  0  0  0  0  0  0
   21.9091   -2.2830   38.3949 O   0  0  0  0  0  0  0  0  0  0  0  0
   18.5481    0.0385   35.9071 C   0  0  2  0  0  0  0  0  0  0  0  0
   18.0944   -0.2690   37.1852 O   0  0  0  0  0  0  0  0  0  0  0  0
   17.7066   -0.7429   34.9170 C   0  0  1  0  0  0  0  0  0  0  0  0
   17.0443    0.2325   34.0088 C   0  0  0  0  0  0  0  0  0  0  0  0
   17.6299    1.2198   33.5242 O   0  0  0  0  0  0  0  0  0  0  0  0
   15.6997    0.0280   33.6856 O   0  0  0  0  0  0  0  0  0  0  0  0
   18.7095   -1.5937   34.1307 C   0  0  0  0  0  0  0  0  0  0  0  0
  1  2  1  6
  2  3  1  0
  3  4  2  0
  3  5  1  0
  6  1  1  1
  6  7  1  0
  7  8  1  0
  8  9  1  1
  9 10  1  0
  8 11  1  0
 11 12  1  0
  7 13  1  6
 13 14  1  0
 14 15  1  0
 14 16  2  0
  6 17  1  0
 17 18  1  1
 17 19  1  0
 19 20  1  6
 20 21  2  0
 20 22  1  0
  1 23  1  0
 19 23  1  0
M  END
$$$$
