1L7F_BCZ_A_801
     RDKit          3D

 23 23  0  0  0  0  0  0  0  0999 V2000
    9.4789   -4.8417   55.8447 C   0  0  1  0  0  0  0  0  0  0  0  0
    9.4995   -5.5015   57.1045 N   0  0  0  0  0  0  0  0  0  0  0  0
    8.4860   -6.4685   57.4597 C   0  0  0  0  0  0  0  0  0  0  0  0
    7.3413   -6.1120   57.8659 N   0  0  0  0  0  0  0  0  0  0  0  0
    8.7525   -7.8743   57.3605 N   0  0  0  0  0  0  0  0  0  0  0  0
    9.6055   -3.3732   55.8075 C   0  0  2  0  0  0  0  0  0  0  0  0
    8.5255   -2.5842   56.5017 C   0  0  2  0  0  0  0  0  0  0  0  0
    8.8085   -1.1204   56.3251 C   0  0  2  0  0  0  0  0  0  0  0  0
   10.1749   -0.6563   56.7045 C   0  0  0  0  0  0  0  0  0  0  0  0
   10.4731    0.7897   56.6739 C   0  0  0  0  0  0  0  0  0  0  0  0
    7.7112   -0.1941   56.7241 C   0  0  0  0  0  0  0  0  0  0  0  0
    7.1259    0.7195   55.7461 C   0  0  0  0  0  0  0  0  0  0  0  0
    8.4404   -3.0557   57.8480 N   0  0  0  0  0  0  0  0  0  0  0  0
    7.1269   -3.1016   58.4556 C   0  0  0  0  0  0  0  0  0  0  0  0
    6.9796   -3.3533   59.9117 C   0  0  0  0  0  0  0  0  0  0  0  0
    6.0820   -2.9312   57.7748 O   0  0  0  0  0  0  0  0  0  0  0  0
    9.6452   -3.1130   54.3215 C   0  0  2  0  0  0  0  0  0  0  0  0
    8.3763   -3.0130   53.7612 O   0  0  0  0  0  0  0  0  0  0  0  0
   10.3140   -4.3413   53.7359 C   0  0  1  0  0  0  0  0  0  0  0  0
   11.5631   -3.9024   53.0561 C   0  0  0  0  0  0  0  0  0  0  0  0
   11.9575   -2.7205   53.0503 O   0  0  0  0  0  0  0  0  0  0  0  0
   12.3289   -4.8656   52.3928 O   0  0  0  0  0  0  0  0  0  0  0  0
   10.6556   -5.2194   54.9443 C   0  0  0  0  0  0  0  0  0  0  0  0
  1  2  1  1
  2  3  1  0
  3  4  2  0
  3  5  1  0
  6  1  1  6
  6  7  1  0
  7  8  1  0
  8  9  1  1
  9 10  1  0
  8 11  1  0
 11 12  1  0
  7 13  1  1
 13 14  1  0
 14 15  1  0
 14 16  2  0
  6 17  1  0
 17 18  1  6
 17 19  1  0
 19 20  1  1
 20 21  2  0
 20 22  1  0
  1 23  1  0
 19 23  1  0
M  END
$$$$
