1L7F_BCZ_A_801
     RDKit          3D

 23 23  0  0  0  0  0  0  0  0999 V2000
   -2.8320    8.6294   59.7030 C   0  0  1  0  0  0  0  0  0  0  0  0
   -2.5857    7.7233   58.6347 N   0  0  0  0  0  0  0  0  0  0  0  0
   -1.7620    8.1000   57.5086 C   0  0  0  0  0  0  0  0  0  0  0  0
   -0.6158    7.5948   57.3258 N   0  0  0  0  0  0  0  0  0  0  0  0
   -2.2260    9.0673   56.5568 N   0  0  0  0  0  0  0  0  0  0  0  0
   -1.7039    9.0519   60.5533 C   0  0  2  0  0  0  0  0  0  0  0  0
   -0.9965    7.9681   61.3250 C   0  0  2  0  0  0  0  0  0  0  0  0
    0.2573    8.5401   61.9206 C   0  0  2  0  0  0  0  0  0  0  0  0
    1.2226    7.5632   62.5041 C   0  0  0  0  0  0  0  0  0  0  0  0
    1.3949    7.5169   63.9699 C   0  0  0  0  0  0  0  0  0  0  0  0
    0.0870    9.7878   62.7178 C   0  0  0  0  0  0  0  0  0  0  0  0
    1.2247   10.6733   62.9526 C   0  0  0  0  0  0  0  0  0  0  0  0
   -0.8306    6.8500   60.4507 N   0  0  0  0  0  0  0  0  0  0  0  0
   -1.6768    5.6970   60.6764 C   0  0  0  0  0  0  0  0  0  0  0  0
   -1.5861    4.5112   59.7870 C   0  0  0  0  0  0  0  0  0  0  0  0
   -2.5057    5.6659   61.6230 O   0  0  0  0  0  0  0  0  0  0  0  0
   -2.3700   10.0617   61.4556 C   0  0  2  0  0  0  0  0  0  0  0  0
   -2.9766    9.4744   62.5606 O   0  0  0  0  0  0  0  0  0  0  0  0
   -3.4613   10.6769   60.6013 C   0  0  1  0  0  0  0  0  0  0  0  0
   -3.1810   12.1334   60.4792 C   0  0  0  0  0  0  0  0  0  0  0  0
   -2.9240   12.6901   59.3945 O   0  0  0  0  0  0  0  0  0  0  0  0
   -3.2082   12.9120   61.6399 O   0  0  0  0  0  0  0  0  0  0  0  0
   -3.3216    9.9998   59.2338 C   0  0  0  0  0  0  0  0  0  0  0  0
  1  2  1  6
  2  3  1  0
  3  4  2  0
  3  5  1  0
  6  1  1  6
  6  7  1  0
  7  8  1  0
  8  9  1  1
  9 10  1  0
  8 11  1  0
 11 12  1  0
  7 13  1  6
 13 14  1  0
 14 15  1  0
 14 16  2  0
  6 17  1  0
 17 18  1  1
 17 19  1  0
 19 20  1  6
 20 21  2  0
 20 22  1  0
  1 23  1  0
 19 23  1  0
M  END
$$$$
