1L7F_BCZ_A_801
     RDKit          3D

 23 23  0  0  0  0  0  0  0  0999 V2000
    7.8286   -2.1304   57.2166 C   0  0  1  0  0  0  0  0  0  0  0  0
    7.9006   -3.4775   57.6672 N   0  0  0  0  0  0  0  0  0  0  0  0
    6.7049   -4.2617   57.8766 C   0  0  0  0  0  0  0  0  0  0  0  0
    6.7356   -5.5270   57.8962 N   0  0  0  0  0  0  0  0  0  0  0  0
    5.4368   -3.6204   58.0702 N   0  0  0  0  0  0  0  0  0  0  0  0
    8.9693   -1.2317   57.4723 C   0  0  2  0  0  0  0  0  0  0  0  0
    9.3181   -0.9766   58.9159 C   0  0  2  0  0  0  0  0  0  0  0  0
   10.5906   -0.1818   58.9713 C   0  0  2  0  0  0  0  0  0  0  0  0
   11.1759    0.0435   60.3252 C   0  0  0  0  0  0  0  0  0  0  0  0
   12.6445    0.0993   60.4691 C   0  0  0  0  0  0  0  0  0  0  0  0
   10.6570    1.0015   58.0676 C   0  0  0  0  0  0  0  0  0  0  0  0
   11.9140    1.3619   57.4166 C   0  0  0  0  0  0  0  0  0  0  0  0
    9.3276   -2.2368   59.5897 N   0  0  0  0  0  0  0  0  0  0  0  0
    8.2938   -2.4722   60.5758 C   0  0  0  0  0  0  0  0  0  0  0  0
    8.3063   -3.7083   61.3988 C   0  0  0  0  0  0  0  0  0  0  0  0
    7.3637   -1.6451   60.7627 O   0  0  0  0  0  0  0  0  0  0  0  0
    8.5309    0.0213   56.7546 C   0  0  2  0  0  0  0  0  0  0  0  0
    7.7210    0.8334   57.5411 O   0  0  0  0  0  0  0  0  0  0  0  0
    7.6959   -0.4766   55.5910 C   0  0  1  0  0  0  0  0  0  0  0  0
    8.3527   -0.0310   54.3321 C   0  0  0  0  0  0  0  0  0  0  0  0
    9.5266   -0.3242   54.0343 O   0  0  0  0  0  0  0  0  0  0  0  0
    7.6139    0.7546   53.4426 O   0  0  0  0  0  0  0  0  0  0  0  0
    7.7443   -2.0046   55.6950 C   0  0  0  0  0  0  0  0  0  0  0  0
  1  2  1  6
  2  3  1  0
  3  4  2  0
  3  5  1  0
  6  1  1  1
  6  7  1  0
  7  8  1  0
  8  9  1  1
  9 10  1  0
  8 11  1  0
 11 12  1  0
  7 13  1  1
 13 14  1  0
 14 15  1  0
 14 16  2  0
  6 17  1  0
 17 18  1  1
 17 19  1  0
 19 20  1  6
 20 21  2  0
 20 22  1  0
  1 23  1  0
 19 23  1  0
M  END
$$$$
