1L7F_BCZ_A_801
     RDKit          3D

 23 23  0  0  0  0  0  0  0  0999 V2000
   44.6296   32.2357   56.1610 C   0  0  1  0  0  0  0  0  0  0  0  0
   45.2220   31.0219   55.7155 N   0  0  0  0  0  0  0  0  0  0  0  0
   46.6577   30.8673   55.6561 C   0  0  0  0  0  0  0  0  0  0  0  0
   47.2341   29.8375   56.1140 N   0  0  0  0  0  0  0  0  0  0  0  0
   47.4776   31.8878   55.0703 N   0  0  0  0  0  0  0  0  0  0  0  0
   43.2289   32.5198   55.7987 C   0  0  2  0  0  0  0  0  0  0  0  0
   42.9217   32.6363   54.3281 C   0  0  2  0  0  0  0  0  0  0  0  0
   41.4457   32.8537   54.1595 C   0  0  2  0  0  0  0  0  0  0  0  0
   40.9394   32.9242   52.7577 C   0  0  0  0  0  0  0  0  0  0  0  0
   39.4911   32.7730   52.5121 C   0  0  0  0  0  0  0  0  0  0  0  0
   40.8243   33.8397   55.0885 C   0  0  0  0  0  0  0  0  0  0  0  0
   39.5790   34.5111   54.7251 C   0  0  0  0  0  0  0  0  0  0  0  0
   43.4722   31.4894   53.6772 N   0  0  0  0  0  0  0  0  0  0  0  0
   44.3379   31.7209   52.5400 C   0  0  0  0  0  0  0  0  0  0  0  0
   44.8235   30.5821   51.7196 C   0  0  0  0  0  0  0  0  0  0  0  0
   44.7009   32.8818   52.2163 O   0  0  0  0  0  0  0  0  0  0  0  0
   42.9818   33.8089   56.5435 C   0  0  2  0  0  0  0  0  0  0  0  0
   43.3893   34.9284   55.8261 O   0  0  0  0  0  0  0  0  0  0  0  0
   43.8536   33.7093   57.7801 C   0  0  1  0  0  0  0  0  0  0  0  0
   42.9646   33.7607   58.9725 C   0  0  0  0  0  0  0  0  0  0  0  0
   42.8429   32.8144   59.7740 O   0  0  0  0  0  0  0  0  0  0  0  0
   42.2319   34.9289   59.2018 O   0  0  0  0  0  0  0  0  0  0  0  0
   44.5215   32.3337   57.6831 C   0  0  0  0  0  0  0  0  0  0  0  0
  1  2  1  1
  2  3  1  0
  3  4  2  0
  3  5  1  0
  6  1  1  6
  6  7  1  0
  7  8  1  0
  8  9  1  6
  9 10  1  0
  8 11  1  0
 11 12  1  0
  7 13  1  6
 13 14  1  0
 14 15  1  0
 14 16  2  0
  6 17  1  0
 17 18  1  6
 17 19  1  0
 19 20  1  1
 20 21  2  0
 20 22  1  0
  1 23  1  0
 19 23  1  0
M  END
$$$$
