7L00_XCJ_A_402
     RDKit          3D

 41 44  0  0  0  0  0  0  0  0999 V2000
   13.0586   15.4655   36.6568 C   0  0  0  0  0  0  0  0  0  0  0  0
   12.5374   14.1408   34.1659 C   0  0  0  0  0  0  0  0  0  0  0  0
   12.3016   12.8763   33.6506 C   0  0  0  0  0  0  0  0  0  0  0  0
   11.3951   12.7605   32.6152 C   0  0  0  0  0  0  0  0  0  0  0  0
   10.7694   13.9236   32.1490 C   0  0  0  0  0  0  0  0  0  0  0  0
   11.0125   15.2050   32.6873 C   0  0  0  0  0  0  0  0  0  0  0  0
   11.9146   15.3100   33.7194 C   0  0  0  0  0  0  0  0  0  0  0  0
    9.8290   12.4400   30.7618 C   0  0  0  0  0  0  0  0  0  0  0  0
    8.7289   12.8281   28.6051 C   0  0  0  0  0  0  0  0  0  0  0  0
    7.2898   12.9772   28.1744 C   0  0  0  0  0  0  0  0  0  0  0  0
    6.4759   13.6331   29.2574 C   0  0  0  0  0  0  0  0  0  0  0  0
    6.7093   13.6547   30.6609 C   0  0  0  0  0  0  0  0  0  0  0  0
    4.6961   14.8834   30.0145 C   0  0  0  0  0  0  0  0  0  0  0  0
    2.9115   15.9429   28.7550 C   0  0  0  0  0  0  0  0  0  0  0  0
    1.7537   16.6274   29.0528 C   0  0  0  0  0  0  0  0  0  0  0  0
    1.6496   16.6971   30.4149 C   0  0  0  0  0  0  0  0  0  0  0  0
    2.7383   16.0596   30.9645 C   0  0  0  0  0  0  0  0  0  0  0  0
    9.8463   13.7556   31.0815 N   0  0  0  0  0  0  0  0  0  0  0  0
    8.9243   12.0190   29.7698 N   0  0  0  0  0  0  0  0  0  0  0  0
    3.4749   15.6222   29.9309 N   0  0  0  0  0  4  0  0  0  0  0  0
    5.2852   14.3574   28.8919 N   0  0  0  0  0  0  0  0  0  0  0  0
    9.6307   13.3424   28.0330 O   0  0  0  0  0  0  0  0  0  0  0  0
   13.8381   12.9143   36.1757 O   0  0  0  0  0  0  0  0  0  0  0  0
   15.0389   14.5540   35.0393 O   0  0  0  0  0  0  0  0  0  0  0  0
   13.6983   14.2285   35.5139 S   0  0  2  0  0  6  0  0  0  0  0  0
   10.8420   11.4795   31.7150 S   0  0  0  0  0  0  0  0  0  0  0  0
    5.5327   14.4995   31.3677 S   0  0  0  0  0  0  0  0  0  0  0  0
   12.0769   15.1830   36.9753 H   0  0  0  0  0  0  0  0  0  0  0  0
   13.0149   16.4156   36.1665 H   0  0  0  0  0  0  0  0  0  0  0  0
   13.7041   15.5327   37.5076 H   0  0  0  0  0  0  0  0  0  0  0  0
   12.7876   12.0480   34.0283 H   0  0  0  0  0  0  0  0  0  0  0  0
   10.5279   16.0378   32.3177 H   0  0  0  0  0  0  0  0  0  0  0  0
   12.1255   16.2233   34.1510 H   0  0  0  0  0  0  0  0  0  0  0  0
    6.8832   12.0095   27.9667 H   0  0  0  0  0  0  0  0  0  0  0  0
    7.2545   13.5903   27.2982 H   0  0  0  0  0  0  0  0  0  0  0  0
    7.5009   13.2039   31.1459 H   0  0  0  0  0  0  0  0  0  0  0  0
    3.2739   15.7207   27.8146 H   0  0  0  0  0  0  0  0  0  0  0  0
    1.0849   17.0176   28.3706 H   0  0  0  0  0  0  0  0  0  0  0  0
    0.8856   17.1502   30.9403 H   0  0  0  0  0  0  0  0  0  0  0  0
    2.9463   15.9416   31.9684 H   0  0  0  0  0  0  0  0  0  0  0  0
    8.4295   11.1745   29.8759 H   0  0  0  0  0  0  0  0  0  0  0  0
  2  3  4  0
  3  4  4  0
  4  5  4  0
  5  6  4  0
  2  7  4  0
  6  7  4  0
  9 10  1  0
 10 11  1  0
 11 12  4  0
 14 15  4  0
 15 16  4  0
 16 17  4  0
  8 18  4  0
  5 18  4  0
  9 19  1  0
  8 19  1  0
 14 20  4  0
 17 20  4  0
 13 20  1  0
 13 21  4  0
 11 21  4  0
  9 22  2  0
 25  1  1  1
  2 25  1  0
 23 25  2  0
 24 25  2  0
  8 26  4  0
  4 26  4  0
 13 27  4  0
 12 27  4  0
  1 28  1  0
  1 29  1  0
  1 30  1  0
  3 31  1  0
  6 32  1  0
  7 33  1  0
 10 34  1  0
 10 35  1  0
 12 36  1  0
 14 37  1  0
 15 38  1  0
 16 39  1  0
 17 40  1  0
 19 41  1  0
M  CHG  1  20   1
M  END
