7LEV_0JO_B_406
     RDKit          3D

 21 21  0  0  0  0  0  0  0  0999 V2000
   30.3654   -9.4737    5.7953 O   0  0  0  0  0  0  0  0  0  0  0  0
   31.2818   -9.9443    6.5255 C   0  0  0  0  0  0  0  0  0  0  0  0
   31.9184   -9.1235    7.4258 O   0  0  0  0  0  0  0  0  0  0  0  0
   31.6072  -11.3613    6.3569 C   0  0  0  0  0  0  0  0  0  0  0  0
   30.9934  -12.0579    5.4168 C   0  0  0  0  0  0  0  0  0  0  0  0
   32.5814  -11.9005    7.2344 N   0  0  0  0  0  0  0  0  0  0  0  0
   33.2556  -12.9794    7.0300 C   0  0  0  0  0  0  0  0  0  0  0  0
   34.2598  -13.3362    7.9998 C   0  0  0  0  0  0  0  0  0  0  0  0
   34.8615  -12.2880    8.7034 C   0  0  0  0  0  0  0  0  0  0  0  0
   34.4984  -10.9780    8.5521 O   0  0  0  0  0  0  0  0  0  0  0  0
   35.8879  -12.5893    9.6098 C   0  0  0  0  0  0  0  0  0  0  0  0
   36.5478  -11.4973   10.3737 C   0  0  0  0  0  0  0  0  0  0  0  0
   36.2592  -13.8722    9.7726 N   0  0  0  0  0  0  0  0  0  0  0  0
   35.6801  -14.8892    9.0960 C   0  0  0  0  0  0  0  0  0  0  0  0
   34.6494  -14.6371    8.1807 C   0  0  0  0  0  0  0  0  0  0  0  0
   34.0182  -15.8129    7.5499 C   0  0  0  0  0  0  0  0  0  0  0  0
   32.6912  -15.8642    7.7362 O   0  0  0  0  0  0  0  0  0  0  0  0
   31.7037  -16.9636    7.0581 P   0  0  1  0  0  0  0  0  0  0  0  0
   32.0666  -18.4174    7.2759 O   0  0  0  0  0  0  0  0  0  0  0  0
   30.1305  -16.7219    7.7505 O   0  0  0  0  0  0  0  0  0  0  0  0
   31.4363  -16.6571    5.3934 O   0  0  0  0  0  0  0  0  0  0  0  0
  1  2  2  0
  2  3  1  0
  2  4  1  0
  4  5  2  0
  4  6  1  0
  6  7  2  0
  7  8  1  0
  8  9  2  0
  9 10  1  0
  9 11  1  0
 11 12  1  0
 11 13  2  0
 13 14  1  0
  8 15  1  0
 14 15  2  0
 15 16  1  0
 16 17  1  0
 17 18  1  0
 18 19  2  0
 18 20  1  1
 18 21  1  0
M  END
$$$$
