@<TRIPOS>MOLECULE
1SQ5_PAU_A_6001
 32 31 0 0 0
SMALL
GASTEIGER

@<TRIPOS>ATOM
      1 O          -1.9022    2.2702    1.0151 O.3     1  UNL1       -0.3944
      2 C          -0.4385    0.3585    1.3814 C.3     1  UNL1        0.0227
      3 C          -1.7851    0.8863    0.8169 C.3     1  UNL1        0.0521
      4 C          -0.3345    0.7205    2.8820 C.3     1  UNL1       -0.0549
      5 C           0.7357    1.0384    0.6402 C.3     1  UNL1       -0.0549
      6 C          -0.3404   -1.1966    1.2334 C.3     1  UNL1        0.1380
      7 O          -1.3567   -1.8176    1.9824 O.3     1  UNL1       -0.3820
      8 C          -0.4180   -1.6643   -0.2033 C.2     1  UNL1        0.2423
      9 O          -1.5421   -1.9162   -0.7178 O.2     1  UNL1       -0.2730
     10 N           0.7797   -1.8188   -0.9792 N.am    1  UNL1       -0.3126
     11 C           0.7688   -2.3227   -2.3524 C.3     1  UNL1        0.0217
     12 C           0.2602   -1.2603   -3.3335 C.3     1  UNL1        0.0603
     13 C           1.1474   -0.0527   -3.3547 C.2     1  UNL1        0.3062
     14 O           2.5040   -0.1896   -3.6331 O.3     1  UNL1       -0.4806
     15 O           0.6611    1.0911   -3.1478 O.2     1  UNL1       -0.2510
     16 H          -2.7826    2.5304    0.6380 H       1  UNL1        0.2094
     17 H          -2.6342    0.3715    1.3204 H       1  UNL1        0.0563
     18 H          -1.8512    0.6739   -0.2734 H       1  UNL1        0.0563
     19 H          -1.1965    0.3101    3.4505 H       1  UNL1        0.0237
     20 H           0.6006    0.3094    3.3203 H       1  UNL1        0.0237
     21 H          -0.3233    1.8220    3.0288 H       1  UNL1        0.0237
     22 H           0.6579    0.8813   -0.4547 H       1  UNL1        0.0237
     23 H           0.7396    2.1345    0.8226 H       1  UNL1        0.0237
     24 H           1.7089    0.6288    0.9868 H       1  UNL1        0.0237
     25 H           0.6462   -1.5178    1.6445 H       1  UNL1        0.0696
     26 H          -1.0895   -2.7667    2.1032 H       1  UNL1        0.2105
     27 H           1.7043   -1.6417   -0.5259 H       1  UNL1        0.1488
     28 H           1.7975   -2.6306   -2.6412 H       1  UNL1        0.0467
     29 H           0.1249   -3.2266   -2.4132 H       1  UNL1        0.0467
     30 H          -0.7782   -0.9661   -3.0687 H       1  UNL1        0.0393
     31 H           0.2352   -1.6961   -4.3548 H       1  UNL1        0.0393
     32 H           3.1133    0.6193   -3.6578 H       1  UNL1        0.2951
@<TRIPOS>BOND
     1     1     3    1
     2     2     3    1
     3     2     4    1
     4     2     5    1
     5     2     6    1
     6     6     7    1
     7     6     8    1
     8     8     9    2
     9     8    10   am
    10    10    11    1
    11    11    12    1
    12    12    13    1
    13    13    14    1
    14    13    15    2
    15     1    16    1
    16     3    17    1
    17     3    18    1
    18     4    19    1
    19     4    20    1
    20     4    21    1
    21     5    22    1
    22     5    23    1
    23     5    24    1
    24     6    25    1
    25     7    26    1
    26    10    27    1
    27    11    28    1
    28    11    29    1
    29    12    30    1
    30    12    31    1
    31    14    32    1
