7D6O_MTE_B_1403
     RDKit          3D

 38 40  0  0  0  0  0  0  0  0999 V2000
   60.1572   -2.6024   40.2840 N   0  0  0  0  0  0  0  0  0  0  0  0
   60.7499   -3.8105   40.0914 C   0  0  0  0  0  0  0  0  0  0  0  0
   59.9465   -4.9553   39.8054 N   0  0  0  0  0  0  0  0  0  0  0  0
   62.1055   -3.9238   40.1741 N   0  0  0  0  0  0  0  0  0  0  0  0
   62.8822   -2.8377   40.4401 C   0  0  0  0  0  0  0  0  0  0  0  0
   64.1348   -2.9642   40.5040 O   0  0  0  0  0  0  0  0  0  0  0  0
   63.0545   -0.4050   40.8931 N   0  0  0  0  0  0  0  0  0  0  0  0
   62.4552    0.9319   40.8365 C   0  0  2  0  0  0  0  0  0  0  0  0
   60.9656    0.9238   41.3107 C   0  0  2  0  0  0  0  0  0  0  0  0
   60.2517   -0.2355   40.7656 N   0  0  0  0  0  0  0  0  0  0  0  0
   62.2832   -1.5852   40.6345 C   0  0  0  0  0  0  0  0  0  0  0  0
   60.8946   -1.4956   40.5594 C   0  0  0  0  0  0  0  0  0  0  0  0
   62.5248    1.5232   39.4501 C   0  0  0  0  0  0  0  0  0  0  0  0
   63.5389    0.7667   38.1625 S   0  0  0  0  0  0  0  0  0  0  0  0
   61.7909    2.6270   39.2238 C   0  0  0  0  0  0  0  0  0  0  0  0
   61.7542    3.4046   37.5919 S   0  0  0  0  0  0  0  0  0  0  0  0
   60.9699    3.1500   40.4001 C   0  0  2  0  0  0  0  0  0  0  0  0
   60.2135    2.0984   40.9840 O   0  0  0  0  0  0  0  0  0  0  0  0
   60.0092    4.2845   40.0234 C   0  0  2  0  0  0  0  0  0  0  0  0
   58.8256    3.7438   39.4826 O   0  0  0  0  0  0  0  0  0  0  0  0
   59.2025    2.2559   38.7389 P   0  0  2  0  0  5  0  0  0  0  0  0
   58.6777    2.2417   37.3208 O   0  0  0  0  0  0  0  0  0  0  0  0
   58.4669    1.0046   39.6079 O   0  0  0  0  0  0  0  0  0  0  0  0
   60.8777    2.0096   38.7218 O   0  0  0  0  0  0  0  0  0  0  0  0
   58.9051   -4.8805   39.8020 H   0  0  0  0  0  0  0  0  0  0  0  0
   60.3875   -5.8784   39.5965 H   0  0  0  0  0  0  0  0  0  0  0  0
   62.5568   -4.8554   40.0274 H   0  0  0  0  0  0  0  0  0  0  0  0
   64.0910   -0.4754   41.0072 H   0  0  0  0  0  0  0  0  0  0  0  0
   63.0337    1.5948   41.5180 H   0  0  0  0  0  0  0  0  0  0  0  0
   60.9710    0.8233   42.4174 H   0  0  0  0  0  0  0  0  0  0  0  0
   59.2152   -0.1784   40.6443 H   0  0  0  0  0  0  0  0  0  0  0  0
   62.9574   -0.4970   38.3767 H   0  0  0  0  0  0  0  0  0  0  0  0
   61.0388    2.3270   37.0373 H   0  0  0  0  0  0  0  0  0  0  0  0
   61.6662    3.5567   41.1689 H   0  0  0  0  0  0  0  0  0  0  0  0
   60.5140    4.9208   39.2616 H   0  0  0  0  0  0  0  0  0  0  0  0
   59.8084    4.9012   40.9298 H   0  0  0  0  0  0  0  0  0  0  0  0
   57.7404    1.4449   40.1167 H   0  0  0  0  0  0  0  0  0  0  0  0
   61.1463    2.1700   37.7821 H   0  0  0  0  0  0  0  0  0  0  0  0
  1  2  2  0
  2  3  1  0
  2  4  1  0
  4  5  1  0
  5  6  2  0
  8  7  1  0
  8  9  1  0
  9 10  1  0
  5 11  1  0
  7 11  1  0
  1 12  1  0
 10 12  1  0
 11 12  2  0
  8 13  1  0
 13 14  1  0
 13 15  2  0
 15 16  1  0
 15 17  1  0
  9 18  1  0
 17 18  1  0
 17 19  1  0
 19 20  1  0
 21 20  1  1
 21 22  2  0
 21 23  1  0
 21 24  1  0
  3 25  1  0
  3 26  1  0
  4 27  1  0
  7 28  1  0
  8 29  1  1
  9 30  1  1
 10 31  1  0
 14 32  1  0
 16 33  1  0
 17 34  1  1
 19 35  1  6
 19 36  1  0
 23 37  1  0
 24 38  1  0
M  END
