1X8X_TYR_A_952
     RDKit          3D

 13 13  0  0  0  0  0  0  0  0999 V2000
    7.2940   27.6690   15.0320 N   0  0  0  0  0  0  0  0  0  0  0  0
    6.8540   28.3310   16.2960 C   0  0  2  0  0  0  0  0  0  0  0  0
    5.3540   28.5940   16.2400 C   0  0  0  0  0  0  0  0  0  0  0  0
    4.7930   29.0130   17.2730 O   0  0  0  0  0  0  0  0  0  0  0  0
    7.5920   29.6610   16.4880 C   0  0  0  0  0  0  0  0  0  0  0  0
    9.0970   29.5370   16.4750 C   0  0  0  0  0  0  0  0  0  0  0  0
    9.7530   28.6950   17.3710 C   0  0  0  0  0  0  0  0  0  0  0  0
    9.8670   30.2590   15.5640 C   0  0  0  0  0  0  0  0  0  0  0  0
   11.1390   28.5750   17.3610 C   0  0  0  0  0  0  0  0  0  0  0  0
   11.2520   30.1450   15.5470 C   0  0  0  0  0  0  0  0  0  0  0  0
   11.8810   29.3030   16.4470 C   0  0  0  0  0  0  0  0  0  0  0  0
   13.2570   29.1950   16.4370 O   0  0  0  0  0  0  0  0  0  0  0  0
    4.7690   28.3980   15.1540 O   0  0  0  0  0  0  0  0  0  0  0  0
  2  1  1  6
  2  3  1  0
  3  4  2  0
  2  5  1  0
  5  6  1  0
  6  7  2  0
  6  8  1  0
  7  9  1  0
  8 10  2  0
  9 11  2  0
 10 11  1  0
 11 12  1  0
  3 13  1  0
M  END
$$$$
