1X8X_TYR_A_952
     RDKit          3D

 24 24  0  0  0  0  0  0  0  0999 V2000
   -3.1664   -0.2726   -1.6820 N   0  0  0  0  0  0  0  0  0  0  0  0
   -1.8678   -0.4654   -1.0328 C   0  0  2  0  0  0  0  0  0  0  0  0
   -2.0345   -1.3379    0.1803 C   0  0  0  0  0  0  0  0  0  0  0  0
   -2.8786   -1.0407    1.0685 O   0  0  0  0  0  0  0  0  0  0  0  0
   -1.2271    0.8899   -0.6650 C   0  0  0  0  0  0  0  0  0  0  0  0
    0.1830    0.7195   -0.1575 C   0  0  0  0  0  0  0  0  0  0  0  0
    0.4415    0.6677    1.2223 C   0  0  0  0  0  0  0  0  0  0  0  0
    1.2455    0.5628   -1.0626 C   0  0  0  0  0  0  0  0  0  0  0  0
    1.7459    0.4776    1.6885 C   0  0  0  0  0  0  0  0  0  0  0  0
    2.5490    0.3733   -0.5939 C   0  0  0  0  0  0  0  0  0  0  0  0
    2.8024    0.3310    0.7839 C   0  0  0  0  0  0  0  0  0  0  0  0
    4.0968    0.1420    1.2626 O   0  0  0  0  0  0  0  0  0  0  0  0
   -1.2297   -2.4619    0.3386 O   0  0  0  0  0  0  0  0  0  0  0  0
   -3.7636    0.3522   -1.0917 H   0  0  0  0  0  0  0  0  0  0  0  0
   -3.0143    0.2167   -2.5941 H   0  0  0  0  0  0  0  0  0  0  0  0
   -1.1997   -0.9920   -1.7510 H   0  0  0  0  0  0  0  0  0  0  0  0
   -1.8494    1.4128    0.0948 H   0  0  0  0  0  0  0  0  0  0  0  0
   -1.2077    1.5432   -1.5648 H   0  0  0  0  0  0  0  0  0  0  0  0
   -0.3665    0.7706    1.9359 H   0  0  0  0  0  0  0  0  0  0  0  0
    1.0628    0.5852   -2.1299 H   0  0  0  0  0  0  0  0  0  0  0  0
    1.9354    0.4410    2.7537 H   0  0  0  0  0  0  0  0  0  0  0  0
    3.3600    0.2564   -1.3014 H   0  0  0  0  0  0  0  0  0  0  0  0
    4.8833    0.0319    0.6331 H   0  0  0  0  0  0  0  0  0  0  0  0
   -1.3174   -3.0525    1.1569 H   0  0  0  0  0  0  0  0  0  0  0  0
  2  1  1  0
  2  3  1  0
  3  4  2  0
  2  5  1  0
  5  6  1  0
  6  7  2  0
  6  8  1  0
  7  9  1  0
  8 10  2  0
  9 11  2  0
 10 11  1  0
 11 12  1  0
  3 13  1  0
  1 14  1  0
  1 15  1  0
  2 16  1  6
  5 17  1  0
  5 18  1  0
  7 19  1  0
  8 20  1  0
  9 21  1  0
 10 22  1  0
 12 23  1  0
 13 24  1  0
M  END
