1W2G_THM_B_1210
     RDKit          3D

 17 18  0  0  0  0  0  0  0  0999 V2000
   37.2690   31.6360   58.1120 O   0  0  0  0  0  0  0  0  0  0  0  0
   37.1280   30.3560   58.6630 C   0  0  0  0  0  0  0  0  0  0  0  0
   35.6320   29.8770   58.6180 C   0  0  1  0  0  0  0  0  0  0  0  0
   34.7340   30.2810   59.6640 O   0  0  0  0  0  0  0  0  0  0  0  0
   34.7020   30.1190   57.3770 C   0  0  1  0  0  0  0  0  0  0  0  0
   33.8010   28.9990   56.9350 O   0  0  0  0  0  0  0  0  0  0  0  0
   34.1020   31.4820   57.8370 C   0  0  0  0  0  0  0  0  0  0  0  0
   33.7730   31.2300   59.2840 C   0  0  2  0  0  0  0  0  0  0  0  0
   33.9110   32.3630   60.2420 N   0  0  0  0  0  0  0  0  0  0  0  0
   32.8850   32.6610   61.0910 C   0  0  0  0  0  0  0  0  0  0  0  0
   31.8350   31.9430   61.0400 O   0  0  0  0  0  0  0  0  0  0  0  0
   32.9480   33.6780   61.9640 N   0  0  0  0  0  0  0  0  0  0  0  0
   34.0410   34.4380   62.0240 C   0  0  0  0  0  0  0  0  0  0  0  0
   34.0740   35.4320   62.8840 O   0  0  0  0  0  0  0  0  0  0  0  0
   35.1370   34.1690   61.1680 C   0  0  0  0  0  0  0  0  0  0  0  0
   36.3980   35.0130   61.2080 C   0  0  0  0  0  0  0  0  0  0  0  0
   35.0470   33.0990   60.2610 C   0  0  0  0  0  0  0  0  0  0  0  0
  1  2  1  0
  3  2  1  6
  3  4  1  0
  3  5  1  0
  5  6  1  1
  5  7  1  0
  4  8  1  0
  7  8  1  0
  8  9  1  1
  9 10  1  0
 10 11  2  0
 10 12  1  0
 12 13  1  0
 13 14  2  0
 13 15  1  0
 15 16  1  0
  9 17  1  0
 15 17  2  0
M  END
$$$$
