@<TRIPOS>MOLECULE
1W2G_THM_B_1210
 31 32 0 0 0
SMALL
GASTEIGER

@<TRIPOS>ATOM
      1 O5*        37.2690   31.6360   58.1120 O.3     1    T1       -0.3924
      2 C5*        37.1280   30.3560   58.6630 C.3     1    T1        0.0729
      3 C4*        35.6320   29.8770   58.6180 C.3     1    T1        0.1100
      4 O4*        34.7340   30.2810   59.6640 O.3     1    T1       -0.3483
      5 C3*        34.7020   30.1190   57.3770 C.3     1    T1        0.0876
      6 O3*        33.8010   28.9990   56.9350 O.3     1    T1       -0.3890
      7 C2*        34.1020   31.4820   57.8370 C.3     1    T1        0.0214
      8 C1*        33.7730   31.2300   59.2840 C.3     1    T1        0.1422
      9 N1         33.9110   32.3630   60.2420 N.ar    1    T1       -0.2737
     10 C2         32.8850   32.6610   61.0910 C.ar    1    T1        0.3313
     11 O2         31.8350   31.9430   61.0400 O.2     1    T1       -0.2464
     12 N3         32.9480   33.6780   61.9640 N.ar    1    T1       -0.2747
     13 C4         34.0410   34.4380   62.0240 C.ar    1    T1        0.2568
     14 O4         34.0740   35.4320   62.8840 O.2     1    T1       -0.2674
     15 C5         35.1370   34.1690   61.1680 C.ar    1    T1        0.0302
     16 C5M        36.3980   35.0130   61.2080 C.3     1    T1       -0.0332
     17 C6         35.0470   33.0990   60.2610 C.ar    1    T1        0.0199
     18 H5*        38.2001   31.9050   58.1531 H       1    T1        0.2095
     19 H5*1       37.4570   30.3765   59.6810 H       1    T1        0.0584
     20 H5*2       37.7187   29.6737   58.0881 H       1    T1        0.0584
     21 H4*        35.9931   28.8708   58.6641 H       1    T1        0.0646
     22 H3*        35.1761   30.1486   56.4182 H       1    T1        0.0621
     23 H3*        33.2144   28.7484   57.6658 H       1    T1        0.2099
     24 H2*1       33.2222   31.7241   57.2782 H       1    T1        0.0335
     25 H2*2       34.7662   32.3081   57.6912 H       1    T1        0.0335
     26 H1*        32.7366   30.9685   59.3335 H       1    T1        0.0840
     27 H3         32.1867   33.8627   62.5603 H       1    T1        0.1734
     28 H5M1       36.2931   35.7760   61.9508 H       1    T1        0.0280
     29 H5M2       36.5547   35.4657   60.2512 H       1    T1        0.0280
     30 H5M3       37.2352   34.3922   61.4502 H       1    T1        0.0280
     31 H6         35.8289   32.8795   59.6242 H       1    T1        0.0816
@<TRIPOS>BOND
     1     1     2    1
     2     3     2    1
     3     3     4    1
     4     3     5    1
     5     5     6    1
     6     5     7    1
     7     4     8    1
     8     7     8    1
     9     8     9    1
    10     9    10   ar
    11    10    11    2
    12    10    12   ar
    13    12    13   ar
    14    13    14    2
    15    13    15   ar
    16    15    16    1
    17     9    17   ar
    18    15    17   ar
    19     1    18    1
    20     2    19    1
    21     2    20    1
    22     3    21    1
    23     5    22    1
    24     6    23    1
    25     7    24    1
    26     7    25    1
    27     8    26    1
    28    12    27    1
    29    16    28    1
    30    16    29    1
    31    16    30    1
    32    17    31    1
