1W2G_THM_B_1210
     RDKit          3D

 17 18  0  0  0  0  0  0  0  0999 V2000
   37.2690   31.6360   58.1120 O   0  0  0  0  0  0  0  0  0  0  0  0
   37.1280   30.3560   58.6630 C   0  0  0  0  0  0  0  0  0  0  0  0
   35.6320   29.8770   58.6180 C   0  0  1  0  0  0  0  0  0  0  0  0
   34.7340   30.2810   59.6640 O   0  0  0  0  0  0  0  0  0  0  0  0
   34.7020   30.1190   57.3770 C   0  0  1  0  0  0  0  0  0  0  0  0
   33.8010   28.9990   56.9350 O   0  0  0  0  0  0  0  0  0  0  0  0
   34.1020   31.4820   57.8370 C   0  0  0  0  0  0  0  0  0  0  0  0
   33.7730   31.2300   59.2840 C   0  0  2  0  0  0  0  0  0  0  0  0
   33.9110   32.3630   60.2420 N   0  0  0  0  0  0  0  0  0  0  0  0
   32.8850   32.6610   61.0910 C   0  0  0  0  0  0  0  0  0  0  0  0
   31.8350   31.9430   61.0400 O   0  0  0  0  0  0  0  0  0  0  0  0
   32.9480   33.6780   61.9640 N   0  0  0  0  0  0  0  0  0  0  0  0
   34.0410   34.4380   62.0240 C   0  0  0  0  0  0  0  0  0  0  0  0
   34.0740   35.4320   62.8840 O   0  0  0  0  0  0  0  0  0  0  0  0
   35.1370   34.1690   61.1680 C   0  0  0  0  0  0  0  0  0  0  0  0
   36.3980   35.0130   61.2080 C   0  0  0  0  0  0  0  0  0  0  0  0
   35.0470   33.0990   60.2610 C   0  0  0  0  0  0  0  0  0  0  0  0
  1  2  1  0
  3  2  1  6
  3  4  1  0
  3  5  1  0
  5  6  1  1
  5  7  1  0
  4  8  1  0
  7  8  1  0
  8  9  1  1
  9 10  1  0
 10 11  2  0
 10 12  1  0
 12 13  1  0
 13 14  2  0
 13 15  1  0
 15 16  1  0
  9 17  1  0
 15 17  2  0
M  END
$$$$
1W2G_THM_A_1210
     RDKit          3D

 17 18  0  0  0  0  0  0  0  0999 V2000
   32.3410   25.9330   88.8560 O   0  0  0  0  0  0  0  0  0  0  0  0
   31.3360   26.4800   88.0450 C   0  0  0  0  0  0  0  0  0  0  0  0
   30.4990   25.3810   87.2800 C   0  0  1  0  0  0  0  0  0  0  0  0
   31.0250   24.7760   86.0910 O   0  0  0  0  0  0  0  0  0  0  0  0
   29.9540   24.0800   87.9600 C   0  0  1  0  0  0  0  0  0  0  0  0
   28.6030   23.5750   87.5180 O   0  0  0  0  0  0  0  0  0  0  0  0
   31.2300   23.2260   87.7370 C   0  0  0  0  0  0  0  0  0  0  0  0
   31.4830   23.4560   86.2720 C   0  0  2  0  0  0  0  0  0  0  0  0
   32.8910   23.4430   85.7840 N   0  0  0  0  0  0  0  0  0  0  0  0
   33.2270   22.7100   84.6780 C   0  0  0  0  0  0  0  0  0  0  0  0
   32.3140   22.0590   84.0860 O   0  0  0  0  0  0  0  0  0  0  0  0
   34.4820   22.6590   84.2020 N   0  0  0  0  0  0  0  0  0  0  0  0
   35.4540   23.3400   84.8190 C   0  0  0  0  0  0  0  0  0  0  0  0
   36.6730   23.2750   84.3390 O   0  0  0  0  0  0  0  0  0  0  0  0
   35.1570   24.1140   85.9680 C   0  0  0  0  0  0  0  0  0  0  0  0
   36.2310   24.9020   86.6990 C   0  0  0  0  0  0  0  0  0  0  0  0
   33.8320   24.1490   86.4420 C   0  0  0  0  0  0  0  0  0  0  0  0
  1  2  1  0
  3  2  1  1
  3  4  1  0
  3  5  1  0
  5  6  1  6
  5  7  1  0
  4  8  1  0
  7  8  1  0
  8  9  1  1
  9 10  1  0
 10 11  2  0
 10 12  1  0
 12 13  1  0
 13 14  2  0
 13 15  1  0
 15 16  1  0
  9 17  1  0
 15 17  2  0
M  END
$$$$
