1YQY_915_A_782
     RDKit          3D

 23 24  0  0  0  0  0  0  0  0999 V2000
   18.4595   12.0258   31.6004 C   0  0  0  0  0  0  0  0  0  0  0  0
   19.4693   11.9673   30.6480 C   0  0  0  0  0  0  0  0  0  0  0  0
   20.3463   13.0178   30.4618 C   0  0  0  0  0  0  0  0  0  0  0  0
   20.2075   14.1507   31.2471 C   0  0  0  0  0  0  0  0  0  0  0  0
   19.2296   14.2490   32.1935 C   0  0  0  0  0  0  0  0  0  0  0  0
   18.3669   13.1653   32.3476 C   0  0  0  0  0  0  0  0  0  0  0  0
   21.0554   15.1954   31.0838 F   0  0  0  0  0  0  0  0  0  0  0  0
   21.4279   12.9713   29.4511 C   0  0  0  0  0  0  0  0  0  0  0  0
   17.3941   10.6518   31.7723 S   0  0  2  0  0  0  0  0  0  0  0  0
   17.6405    9.8595   33.2580 N   0  0  0  0  0  0  0  0  0  0  0  0
   18.7406    8.8588   33.1788 C   0  0  1  0  0  0  0  0  0  0  0  0
   20.0167    9.5715   33.3754 C   0  0  0  0  0  0  0  0  0  0  0  0
   21.1781    9.4024   32.6111 N   0  0  0  0  0  0  0  0  0  0  0  0
   22.2962   10.1161   32.8809 O   0  0  0  0  0  0  0  0  0  0  0  0
   20.0589   10.4135   34.3205 O   0  0  0  0  0  0  0  0  0  0  0  0
   17.5597    9.6942   30.6101 O   0  0  0  0  0  0  0  0  0  0  0  0
   15.9875   11.1523   31.7367 O   0  0  0  0  0  0  0  0  0  0  0  0
   18.4509    7.9260   34.2895 C   0  0  1  0  0  0  0  0  0  0  0  0
   19.1471    6.6139   34.2989 C   0  0  0  0  0  0  0  0  0  0  0  0
   18.7137    5.7651   35.4781 C   0  0  0  0  0  0  0  0  0  0  0  0
   18.7516    6.4776   36.6685 O   0  0  0  0  0  0  0  0  0  0  0  0
   18.0554    7.6703   36.6450 C   0  0  0  0  0  0  0  0  0  0  0  0
   18.7845    8.5755   35.6415 C   0  0  0  0  0  0  0  0  0  0  0  0
  1  2  2  0
  2  3  1  0
  3  4  2  0
  4  5  1  0
  1  6  1  0
  5  6  2  0
  4  7  1  0
  3  8  1  0
  1  9  1  0
  9 10  1  1
 11 10  1  1
 11 12  1  0
 12 13  1  0
 13 14  1  0
 12 15  2  0
  9 16  2  0
  9 17  2  0
 11 18  1  0
 18 19  1  6
 19 20  1  0
 20 21  1  0
 21 22  1  0
 18 23  1  0
 22 23  1  0
M  END
$$$$
