1YQY_915_A_782
     RDKit          3D

 23 24  0  0  0  0  0  0  0  0999 V2000
   19.3619   37.5938   13.3573 C   0  0  0  0  0  0  0  0  0  0  0  0
   19.0559   37.3584   14.6919 C   0  0  0  0  0  0  0  0  0  0  0  0
   19.7365   37.9956   15.7107 C   0  0  0  0  0  0  0  0  0  0  0  0
   20.7451   38.8876   15.3842 C   0  0  0  0  0  0  0  0  0  0  0  0
   21.0772   39.1473   14.0865 C   0  0  0  0  0  0  0  0  0  0  0  0
   20.3645   38.4821   13.0906 C   0  0  0  0  0  0  0  0  0  0  0  0
   21.4281   39.5258   16.3657 F   0  0  0  0  0  0  0  0  0  0  0  0
   19.4226   37.7559   17.1382 C   0  0  0  0  0  0  0  0  0  0  0  0
   18.4508   36.7469   12.1304 S   0  0  2  0  0  0  0  0  0  0  0  0
   18.6369   35.0615   12.2740 N   0  0  0  0  0  0  0  0  0  0  0  0
   20.0135   34.6214   11.9150 C   0  0  1  0  0  0  0  0  0  0  0  0
   20.8282   34.6330   13.1443 C   0  0  0  0  0  0  0  0  0  0  0  0
   22.0619   35.2759   13.3060 N   0  0  0  0  0  0  0  0  0  0  0  0
   22.7788   35.1252   14.4443 O   0  0  0  0  0  0  0  0  0  0  0  0
   20.3633   34.0056   14.1415 O   0  0  0  0  0  0  0  0  0  0  0  0
   18.8421   37.2222   10.7461 O   0  0  0  0  0  0  0  0  0  0  0  0
   17.0065   37.0760   12.3199 O   0  0  0  0  0  0  0  0  0  0  0  0
   19.8216   33.2515   11.3912 C   0  0  1  0  0  0  0  0  0  0  0  0
   19.2425   33.0986   10.0319 C   0  0  0  0  0  0  0  0  0  0  0  0
   19.0777   31.6378    9.6610 C   0  0  0  0  0  0  0  0  0  0  0  0
   20.2314   30.9083    9.9117 O   0  0  0  0  0  0  0  0  0  0  0  0
   20.7196   31.0320   11.1979 C   0  0  0  0  0  0  0  0  0  0  0  0
   21.1586   32.4953   11.3535 C   0  0  0  0  0  0  0  0  0  0  0  0
  1  2  2  0
  2  3  1  0
  3  4  2  0
  4  5  1  0
  1  6  1  0
  5  6  2  0
  4  7  1  0
  3  8  1  0
  1  9  1  0
  9 10  1  6
 11 10  1  1
 11 12  1  0
 12 13  1  0
 13 14  1  0
 12 15  2  0
  9 16  2  0
  9 17  2  0
 11 18  1  0
 18 19  1  6
 19 20  1  0
 20 21  1  0
 21 22  1  0
 18 23  1  0
 22 23  1  0
M  END
$$$$
