1YQY_915_A_782
     RDKit          3D

 23 24  0  0  0  0  0  0  0  0999 V2000
   24.1782   29.5835   17.5321 C   0  0  0  0  0  0  0  0  0  0  0  0
   23.6243   30.6770   18.1860 C   0  0  0  0  0  0  0  0  0  0  0  0
   23.8932   30.9337   19.5160 C   0  0  0  0  0  0  0  0  0  0  0  0
   24.7352   30.0758   20.2047 C   0  0  0  0  0  0  0  0  0  0  0  0
   25.3000   28.9906   19.6003 C   0  0  0  0  0  0  0  0  0  0  0  0
   25.0013   28.7697   18.2571 C   0  0  0  0  0  0  0  0  0  0  0  0
   25.0149   30.3057   21.5108 F   0  0  0  0  0  0  0  0  0  0  0  0
   23.3109   32.0948   20.2276 C   0  0  0  0  0  0  0  0  0  0  0  0
   23.7873   29.3325   15.8478 S   0  0  2  0  0  0  0  0  0  0  0  0
   25.1369   29.6146   14.8504 N   0  0  0  0  0  0  0  0  0  0  0  0
   24.7675   29.6365   13.4079 C   0  0  1  0  0  0  0  0  0  0  0  0
   25.1372   30.9570   12.8653 C   0  0  0  0  0  0  0  0  0  0  0  0
   24.3375   31.7600   12.0423 N   0  0  0  0  0  0  0  0  0  0  0  0
   24.7414   32.9998   11.6788 O   0  0  0  0  0  0  0  0  0  0  0  0
   26.2814   31.4010   13.1778 O   0  0  0  0  0  0  0  0  0  0  0  0
   22.6137   30.1965   15.4337 O   0  0  0  0  0  0  0  0  0  0  0  0
   23.3702   27.9085   15.6790 O   0  0  0  0  0  0  0  0  0  0  0  0
   25.5786   28.5491   12.8185 C   0  0  1  0  0  0  0  0  0  0  0  0
   25.0168   27.1741   12.8301 C   0  0  0  0  0  0  0  0  0  0  0  0
   25.9838   26.1754   12.2249 C   0  0  0  0  0  0  0  0  0  0  0  0
   26.4831   26.6137   11.0064 O   0  0  0  0  0  0  0  0  0  0  0  0
   27.0427   27.8761   11.0371 C   0  0  0  0  0  0  0  0  0  0  0  0
   25.8953   28.8490   11.3452 C   0  0  0  0  0  0  0  0  0  0  0  0
  1  2  2  0
  2  3  1  0
  3  4  2  0
  4  5  1  0
  1  6  1  0
  5  6  2  0
  4  7  1  0
  3  8  1  0
  1  9  1  0
  9 10  1  6
 11 10  1  1
 11 12  1  0
 12 13  1  0
 13 14  1  0
 12 15  2  0
  9 16  2  0
  9 17  2  0
 11 18  1  0
 18 19  1  6
 19 20  1  0
 20 21  1  0
 21 22  1  0
 18 23  1  0
 22 23  1  0
M  END
$$$$
