1YQY_915_A_782
     RDKit          3D

 23 24  0  0  0  0  0  0  0  0999 V2000
    9.2101   19.8825   27.5309 C   0  0  0  0  0  0  0  0  0  0  0  0
    9.9268   21.0346   27.8295 C   0  0  0  0  0  0  0  0  0  0  0  0
    9.7697   21.6891   29.0354 C   0  0  0  0  0  0  0  0  0  0  0  0
    8.8749   21.1776   29.9612 C   0  0  0  0  0  0  0  0  0  0  0  0
    8.1514   20.0488   29.7078 C   0  0  0  0  0  0  0  0  0  0  0  0
    8.3415   19.4206   28.4784 C   0  0  0  0  0  0  0  0  0  0  0  0
    8.7025   21.8014   31.1520 F   0  0  0  0  0  0  0  0  0  0  0  0
   10.5259   22.9181   29.3691 C   0  0  0  0  0  0  0  0  0  0  0  0
    9.4702   19.1156   25.9828 S   0  0  2  0  0  0  0  0  0  0  0  0
   10.3442   17.6650   26.1496 N   0  0  0  0  0  0  0  0  0  0  0  0
   11.8098   17.8776   25.9930 C   0  0  1  0  0  0  0  0  0  0  0  0
   12.3410   18.3443   27.2872 C   0  0  0  0  0  0  0  0  0  0  0  0
   13.1969   19.4363   27.4781 N   0  0  0  0  0  0  0  0  0  0  0  0
   13.6979   19.7193   28.7033 O   0  0  0  0  0  0  0  0  0  0  0  0
   11.9850   17.6967   28.3157 O   0  0  0  0  0  0  0  0  0  0  0  0
   10.1631   20.0619   25.0237 O   0  0  0  0  0  0  0  0  0  0  0  0
    8.1344   18.7925   25.3986 O   0  0  0  0  0  0  0  0  0  0  0  0
   12.3250   16.5385   25.6337 C   0  0  1  0  0  0  0  0  0  0  0  0
   12.0702   16.0383   24.2585 C   0  0  0  0  0  0  0  0  0  0  0  0
   12.6288   14.6422   24.0643 C   0  0  0  0  0  0  0  0  0  0  0  0
   13.9396   14.5443   24.5095 O   0  0  0  0  0  0  0  0  0  0  0  0
   14.1374   14.9716   25.8080 C   0  0  0  0  0  0  0  0  0  0  0  0
   13.8498   16.4801   25.8140 C   0  0  0  0  0  0  0  0  0  0  0  0
  1  2  2  0
  2  3  1  0
  3  4  2  0
  4  5  1  0
  1  6  1  0
  5  6  2  0
  4  7  1  0
  3  8  1  0
  1  9  1  0
  9 10  1  1
 11 10  1  1
 11 12  1  0
 12 13  1  0
 13 14  1  0
 12 15  2  0
  9 16  2  0
  9 17  2  0
 11 18  1  0
 18 19  1  6
 19 20  1  0
 20 21  1  0
 21 22  1  0
 18 23  1  0
 22 23  1  0
M  END
$$$$
