1YQY_915_A_782
     RDKit          3D

 23 24  0  0  0  0  0  0  0  0999 V2000
    8.4679   21.4348   27.5356 C   0  0  0  0  0  0  0  0  0  0  0  0
    8.8201   22.6381   26.9370 C   0  0  0  0  0  0  0  0  0  0  0  0
    8.2164   23.8266   27.2979 C   0  0  0  0  0  0  0  0  0  0  0  0
    7.2390   23.8080   28.2796 C   0  0  0  0  0  0  0  0  0  0  0  0
    6.8635   22.6482   28.8925 C   0  0  0  0  0  0  0  0  0  0  0  0
    7.4989   21.4724   28.4974 C   0  0  0  0  0  0  0  0  0  0  0  0
    6.6313   24.9610   28.6516 F   0  0  0  0  0  0  0  0  0  0  0  0
    8.5803   25.1176   26.6697 C   0  0  0  0  0  0  0  0  0  0  0  0
    9.2823   19.9772   27.0214 S   0  0  2  0  0  0  0  0  0  0  0  0
   10.7748   19.7886   27.8168 N   0  0  0  0  0  0  0  0  0  0  0  0
   11.4601   18.5269   27.4214 C   0  0  1  0  0  0  0  0  0  0  0  0
   11.7409   18.5975   25.9754 C   0  0  0  0  0  0  0  0  0  0  0  0
   11.4913   17.5856   25.0398 N   0  0  0  0  0  0  0  0  0  0  0  0
   11.9233   17.7000   23.7621 O   0  0  0  0  0  0  0  0  0  0  0  0
   12.2510   19.6744   25.5462 O   0  0  0  0  0  0  0  0  0  0  0  0
    9.4611   19.9633   25.5170 O   0  0  0  0  0  0  0  0  0  0  0  0
    8.4136   18.8150   27.3749 O   0  0  0  0  0  0  0  0  0  0  0  0
   12.7007   18.5308   28.2268 C   0  0  1  0  0  0  0  0  0  0  0  0
   12.5843   18.2981   29.6893 C   0  0  0  0  0  0  0  0  0  0  0  0
   13.9366   18.3700   30.3711 C   0  0  0  0  0  0  0  0  0  0  0  0
   14.8885   17.6051   29.7115 O   0  0  0  0  0  0  0  0  0  0  0  0
   15.0082   17.8773   28.3627 C   0  0  0  0  0  0  0  0  0  0  0  0
   13.6781   17.4597   27.7188 C   0  0  0  0  0  0  0  0  0  0  0  0
  1  2  2  0
  2  3  1  0
  3  4  2  0
  4  5  1  0
  1  6  1  0
  5  6  2  0
  4  7  1  0
  3  8  1  0
  1  9  1  0
  9 10  1  1
 11 10  1  1
 11 12  1  0
 12 13  1  0
 13 14  1  0
 12 15  2  0
  9 16  2  0
  9 17  2  0
 11 18  1  0
 18 19  1  1
 19 20  1  0
 20 21  1  0
 21 22  1  0
 18 23  1  0
 22 23  1  0
M  END
$$$$
