1YQY_915_A_782
     RDKit          3D

 23 24  0  0  0  0  0  0  0  0999 V2000
   18.4595   15.8947   25.8215 C   0  0  0  0  0  0  0  0  0  0  0  0
   17.1033   16.0648   25.5724 C   0  0  0  0  0  0  0  0  0  0  0  0
   16.3921   15.1617   24.8069 C   0  0  0  0  0  0  0  0  0  0  0  0
   17.0549   14.0651   24.2802 C   0  0  0  0  0  0  0  0  0  0  0  0
   18.3859   13.8606   24.5008 C   0  0  0  0  0  0  0  0  0  0  0  0
   19.0642   14.7968   25.2788 C   0  0  0  0  0  0  0  0  0  0  0  0
   16.3795   13.1643   23.5257 F   0  0  0  0  0  0  0  0  0  0  0  0
   14.9464   15.3286   24.5320 C   0  0  0  0  0  0  0  0  0  0  0  0
   19.2834   17.0834   26.8016 S   0  0  2  0  0  0  0  0  0  0  0  0
   19.3985   16.5773   28.4222 N   0  0  0  0  0  0  0  0  0  0  0  0
   18.8097   17.5739   29.3592 C   0  0  1  0  0  0  0  0  0  0  0  0
   17.3420   17.4460   29.2933 C   0  0  0  0  0  0  0  0  0  0  0  0
   16.4303   18.5019   29.1688 N   0  0  0  0  0  0  0  0  0  0  0  0
   15.0967   18.2701   29.1644 O   0  0  0  0  0  0  0  0  0  0  0  0
   16.8694   16.2724   29.3520 O   0  0  0  0  0  0  0  0  0  0  0  0
   18.6002   18.4317   26.6991 O   0  0  0  0  0  0  0  0  0  0  0  0
   20.6667   17.2458   26.2628 O   0  0  0  0  0  0  0  0  0  0  0  0
   19.3413   17.1743   30.6804 C   0  0  1  0  0  0  0  0  0  0  0  0
   20.7739   17.4431   30.9668 C   0  0  0  0  0  0  0  0  0  0  0  0
   21.1672   16.9421   32.3427 C   0  0  0  0  0  0  0  0  0  0  0  0
   20.2688   17.3526   33.3177 O   0  0  0  0  0  0  0  0  0  0  0  0
   18.9495   17.0463   33.0468 C   0  0  0  0  0  0  0  0  0  0  0  0
   18.5618   17.8674   31.8085 C   0  0  0  0  0  0  0  0  0  0  0  0
  1  2  2  0
  2  3  1  0
  3  4  2  0
  4  5  1  0
  1  6  1  0
  5  6  2  0
  4  7  1  0
  3  8  1  0
  1  9  1  0
  9 10  1  1
 11 10  1  6
 11 12  1  0
 12 13  1  0
 13 14  1  0
 12 15  2  0
  9 16  2  0
  9 17  2  0
 11 18  1  0
 18 19  1  6
 19 20  1  0
 20 21  1  0
 21 22  1  0
 18 23  1  0
 22 23  1  0
M  END
$$$$
