8C5M_MTA_A_7216
     RDKit          3D

 20 22  0  0  0  0  0  0  0  0999 V2000
   87.6287  -20.1857  -27.3786 C   0  0  0  0  0  0  0  0  0  0  0  0
   88.7317  -18.8914  -26.8099 S   0  0  0  0  0  0  0  0  0  0  0  0
   88.3747  -17.2537  -27.4151 C   0  0  0  0  0  0  0  0  0  0  0  0
   87.8957  -16.3427  -26.3455 C   0  0  1  0  0  0  0  0  0  0  0  0
   88.8841  -16.2284  -25.3307 O   0  0  0  0  0  0  0  0  0  0  0  0
   87.8557  -14.1617  -25.4481 C   0  0  2  0  0  0  0  0  0  0  0  0
   86.5815  -13.8747  -24.9565 O   0  0  0  0  0  0  0  0  0  0  0  0
   87.7182  -14.9286  -26.7754 C   0  0  2  0  0  0  0  0  0  0  0  0
   86.4319  -14.6893  -27.2910 O   0  0  0  0  0  0  0  0  0  0  0  0
   88.4847  -15.1857  -24.5423 C   0  0  2  0  0  0  0  0  0  0  0  0
   89.6184  -14.5907  -23.8162 N   0  0  0  0  0  0  0  0  0  0  0  0
   90.8114  -14.3274  -24.3856 C   0  0  0  0  0  0  0  0  0  0  0  0
   91.6329  -13.7839  -23.4430 N   0  0  0  0  0  0  0  0  0  0  0  0
   90.9231  -13.7250  -22.3100 C   0  0  0  0  0  0  0  0  0  0  0  0
   91.2429  -13.2655  -21.0291 C   0  0  0  0  0  0  0  0  0  0  0  0
   92.5414  -12.7406  -20.7666 N   0  0  0  0  0  0  0  0  0  0  0  0
   90.3032  -13.3298  -20.0532 N   0  0  0  0  0  0  0  0  0  0  0  0
   89.0700  -13.8301  -20.3051 C   0  0  0  0  0  0  0  0  0  0  0  0
   88.7261  -14.2847  -21.5367 N   0  0  0  0  0  0  0  0  0  0  0  0
   89.6484  -14.2272  -22.5155 C   0  0  0  0  0  0  0  0  0  0  0  0
  1  2  1  0
  2  3  1  0
  4  3  1  6
  4  5  1  0
  6  7  1  1
  4  8  1  0
  6  8  1  0
  8  9  1  1
  5 10  1  0
  6 10  1  0
 10 11  1  6
 11 12  1  0
 12 13  2  0
 13 14  1  0
 14 15  2  0
 15 16  1  0
 15 17  1  0
 17 18  2  0
 18 19  1  0
 11 20  1  0
 14 20  1  0
 19 20  2  0
M  END
$$$$
