1HP0_AD3_A_1315
     RDKit          3D

 19 21  0  0  0  0  0  0  0  0999 V2000
   20.8191   29.5179   20.8176 O   0  0  0  0  0  0  0  0  0  0  0  0
   19.8032   29.9738   19.9261 C   0  0  0  0  0  0  0  0  0  0  0  0
   19.2659   28.8867   18.9630 C   0  0  1  0  0  0  0  0  0  0  0  0
   19.1461   27.7943   19.9271 O   0  0  0  0  0  0  0  0  0  0  0  0
   17.8835   29.5285   18.7664 C   0  0  1  0  0  0  0  0  0  0  0  0
   17.6613   29.5580   17.3559 O   0  0  0  0  0  0  0  0  0  0  0  0
   16.8985   28.6600   19.6002 C   0  0  1  0  0  0  0  0  0  0  0  0
   15.7811   28.0628   18.9358 O   0  0  0  0  0  0  0  0  0  0  0  0
   17.7661   27.5619   20.2231 C   0  0  2  0  0  0  0  0  0  0  0  0
   17.4555   27.1383   21.6277 N   0  0  0  0  0  0  0  0  0  0  0  0
   16.1802   26.8121   22.1521 C   0  0  0  0  0  0  0  0  0  0  0  0
   16.1566   26.4824   23.4293 N   0  0  0  0  0  0  0  0  0  0  0  0
   17.5059   26.5921   23.8056 C   0  0  0  0  0  0  0  0  0  0  0  0
   18.2029   26.3868   25.0651 C   0  0  0  0  0  0  0  0  0  0  0  0
   17.5938   26.0157   26.1877 N   0  0  0  0  0  0  0  0  0  0  0  0
   19.5700   26.5929   25.0799 N   0  0  0  0  0  0  0  0  0  0  0  0
   20.2287   26.9724   23.9497 C   0  0  0  0  0  0  0  0  0  0  0  0
   19.7081   27.1987   22.7162 C   0  0  0  0  0  0  0  0  0  0  0  0
   18.3166   26.9912   22.7071 C   0  0  0  0  0  0  0  0  0  0  0  0
  1  2  1  0
  3  2  1  1
  3  4  1  0
  3  5  1  0
  5  6  1  6
  5  7  1  0
  7  8  1  6
  4  9  1  0
  7  9  1  0
  9 10  1  1
 10 11  1  0
 11 12  2  0
 12 13  1  0
 13 14  2  0
 14 15  1  0
 14 16  1  0
 16 17  2  0
 17 18  1  0
 10 19  1  0
 13 19  1  0
 18 19  2  0
M  END
