
     RDKit          3D

 21 21  0  0  0  0  0  0  0  0999 V2000
   10.8681    0.3667   24.7212 O   0  0  0  0  0  0  0  0  0  0  0  0
    9.6824    0.3575   24.4281 C   0  0  0  0  0  0  0  0  0  0  0  0
    8.7396    0.5084   25.3771 O   0  0  0  0  0  0  0  0  0  0  0  0
    9.1362    0.1994   23.0326 C   0  0  0  0  0  0  0  0  0  0  0  0
    9.8758    0.5408   21.9670 C   0  0  0  0  0  0  0  0  0  0  0  0
    7.8343   -0.2342   22.8530 N   0  0  0  0  0  0  0  0  0  0  0  0
    7.7387   -1.4028   22.2914 C   0  0  0  0  0  0  0  0  0  0  0  0
    6.4338   -2.0659   22.0870 C   0  0  0  0  0  0  0  0  0  0  0  0
    5.5685   -2.1338   23.1880 C   0  0  0  0  0  0  0  0  0  0  0  0
    5.9729   -1.5914   24.3787 O   0  0  0  0  0  0  0  0  0  0  0  0
    4.3360   -2.7666   23.0307 C   0  0  0  0  0  0  0  0  0  0  0  0
    3.3532   -2.9033   24.1548 C   0  0  0  0  0  0  0  0  0  0  0  0
    3.9593   -3.3205   21.8549 N   0  0  0  0  0  0  0  0  0  0  0  0
    4.8117   -3.2299   20.8086 C   0  0  0  0  0  0  0  0  0  0  0  0
    6.0510   -2.6003   20.8492 C   0  0  0  0  0  0  0  0  0  0  0  0
    6.8462   -2.5102   19.5790 C   0  0  0  0  0  0  0  0  0  0  0  0
    8.1579   -2.9775   19.8140 O   0  0  0  0  0  0  0  0  0  0  0  0
    8.5380   -4.4286   19.2652 P   0  0  0  0  0  5  0  0  0  0  0  0
    7.8764   -4.8799   18.0104 O   0  0  0  0  0  0  0  0  0  0  0  0
   10.1299   -4.4447   19.2294 O   0  0  0  0  0  0  0  0  0  0  0  0
    8.2410   -5.3838   20.5114 O   0  0  0  0  0  0  0  0  0  0  0  0
  1  2  2  0
  2  3  1  0
  2  4  1  0
  4  5  2  0
  4  6  1  0
  6  7  2  0
  7  8  1  0
  8  9  4  0
  9 10  1  0
  9 11  4  0
 11 12  1  0
 11 13  4  0
 13 14  4  0
  8 15  4  0
 14 15  4  0
 15 16  1  0
 16 17  1  0
 17 18  1  0
 18 19  2  0
 18 20  1  0
 18 21  1  0
M  END
