7V14_ORU_A_702
     RDKit          3D

 53 58  0  0  0  0  0  0  0  0999 V2000
   31.7231    5.3910   -4.9584 C   0  0  0  0  0  0  0  0  0  0  0  0
   33.0303    5.5484   -5.4299 C   0  0  0  0  0  0  0  0  0  0  0  0
   33.8124    4.4274   -5.6932 C   0  0  0  0  0  0  0  0  0  0  0  0
   33.2902    3.1388   -5.4762 C   0  0  0  0  0  0  0  0  0  0  0  0
   34.1219    1.9174   -5.8369 C   0  0  1  0  0  0  0  0  0  0  0  0
   35.6438    3.0231   -7.5573 C   0  0  2  0  0  0  0  0  0  0  0  0
   36.5901    1.3321   -3.2383 C   0  0  0  0  0  0  0  0  0  0  0  0
   37.6429    0.2285    0.3583 C   0  0  0  0  0  0  0  0  0  0  0  0
   30.8704    7.6211   -5.6487 C   0  0  0  0  0  0  0  0  0  0  0  0
   30.0297    8.7265   -5.4805 C   0  0  0  0  0  0  0  0  0  0  0  0
   29.1721    8.7912   -4.3828 C   0  0  0  0  0  0  0  0  0  0  0  0
   35.3042    4.4001   -7.0113 C   0  0  1  0  0  0  0  0  0  0  0  0
   35.2827    4.1502   -8.5123 C   0  0  2  0  0  0  0  0  0  0  0  0
   35.3092    1.2309   -3.7432 C   0  0  0  0  0  0  0  0  0  0  0  0
   37.3068    2.0130   -4.2027 C   0  0  0  0  0  0  0  0  0  0  0  0
   37.1010    0.7987   -1.9644 C   0  0  0  0  0  0  0  0  0  0  0  0
   38.0841   -0.1739   -1.8100 C   0  0  0  0  0  0  0  0  0  0  0  0
   30.8651    6.5714   -4.7122 C   0  0  0  0  0  0  0  0  0  0  0  0
   29.1584    7.7618   -3.4421 C   0  0  0  0  0  0  0  0  0  0  0  0
   31.2294    4.0964   -4.7556 C   0  0  0  0  0  0  0  0  0  0  0  0
   30.0119    6.6500   -3.5840 C   0  0  0  0  0  0  0  0  0  0  0  0
   29.4237    5.6779   -1.3580 C   0  0  0  0  0  0  0  0  0  0  0  0
   34.5589    1.9608   -7.3154 C   0  0  1  0  0  0  0  0  0  0  0  0
   31.6847    7.5626   -6.7336 F   0  0  0  0  0  0  0  0  0  0  0  0
   35.2913    1.8152   -4.9545 N   0  0  0  0  0  0  0  0  0  0  0  0
   36.4934    2.2992   -5.2362 N   0  0  0  0  0  0  0  0  0  0  0  0
   32.0066    3.0073   -5.0121 N   0  0  0  0  0  4  0  0  0  0  0  0
   38.3781   -0.4855   -0.5208 N   0  0  0  0  0  0  0  0  0  0  0  0
   30.0354    5.6461   -2.5549 N   0  0  0  0  0  0  0  0  0  0  0  0
   29.7301    4.5674   -0.6646 N   0  0  0  0  0  0  0  0  0  0  0  0
   30.5399    3.8717   -1.4543 N   0  0  0  0  0  0  0  0  0  0  0  0
   30.7303    4.5208   -2.5912 N   0  0  0  0  0  0  0  0  0  0  0  0
   31.4635    1.7610   -4.8029 O   0  0  0  0  0  1  0  0  0  0  0  0
   36.5944    1.2764   -0.4345 S   0  0  0  0  0  0  0  0  0  0  0  0
   30.0503   10.0408   -6.6489 Cl  0  0  0  0  0  0  0  0  0  0  0  0
   33.4413    6.5390   -5.5971 H   0  0  0  0  0  0  0  0  0  0  0  0
   34.8113    4.5679   -6.0824 H   0  0  0  0  0  0  0  0  0  0  0  0
   33.5221    0.9909   -5.6997 H   0  0  0  0  0  0  0  0  0  0  0  0
   36.7145    2.7501   -7.5081 H   0  0  0  0  0  0  0  0  0  0  0  0
   37.7310    0.1251    1.4290 H   0  0  0  0  0  0  0  0  0  0  0  0
   28.5226    9.6475   -4.2495 H   0  0  0  0  0  0  0  0  0  0  0  0
   34.2889    4.5285   -6.5784 H   0  0  0  0  0  0  0  0  0  0  0  0
   36.1814    5.0046   -6.6815 H   0  0  0  0  0  0  0  0  0  0  0  0
   34.2564    4.1193   -8.9499 H   0  0  0  0  0  0  0  0  0  0  0  0
   36.1512    4.5866   -9.0495 H   0  0  0  0  0  0  0  0  0  0  0  0
   34.4613    0.7524   -3.2757 H   0  0  0  0  0  0  0  0  0  0  0  0
   38.3548    2.2780   -4.1610 H   0  0  0  0  0  0  0  0  0  0  0  0
   38.5827   -0.6554   -2.6387 H   0  0  0  0  0  0  0  0  0  0  0  0
   28.5059    7.8534   -2.5840 H   0  0  0  0  0  0  0  0  0  0  0  0
   30.2169    3.9594   -4.3985 H   0  0  0  0  0  0  0  0  0  0  0  0
   28.7700    6.4652   -1.0013 H   0  0  0  0  0  0  0  0  0  0  0  0
   34.8924    0.9506   -7.6441 H   0  0  0  0  0  0  0  0  0  0  0  0
   33.6805    2.2352   -7.9389 H   0  0  0  0  0  0  0  0  0  0  0  0
  1  2  2  0
  2  3  1  0
  3  4  2  0
  4  5  1  0
  9 10  2  0
 10 11  1  0
  6 12  1  0
  6 13  1  0
 12 13  1  0
  7 14  2  0
  7 15  1  0
  7 16  1  0
 16 17  2  0
  1 18  1  0
  9 18  1  0
 11 19  2  0
  1 20  1  0
 18 21  2  0
 19 21  1  0
  6 23  1  0
  5 23  1  0
  9 24  1  0
  5 25  1  0
 14 25  1  0
 25 26  1  0
 15 26  2  0
  4 27  1  0
 20 27  2  0
 17 28  1  0
  8 28  2  0
 22 29  1  0
 21 29  1  0
 22 30  2  0
 30 31  1  0
 29 32  1  0
 31 32  2  0
 27 33  1  0
 16 34  1  0
  8 34  1  0
 10 35  1  0
  2 36  1  0
  3 37  1  0
  5 38  1  6
  6 39  1  6
  8 40  1  0
 11 41  1  0
 12 42  1  1
 12 43  1  0
 13 44  1  6
 13 45  1  0
 14 46  1  0
 15 47  1  0
 17 48  1  0
 19 49  1  0
 20 50  1  0
 22 51  1  0
 23 52  1  6
 23 53  1  0
M  CHG  2  27   1  33  -1
M  END
