7L7C_XQ1_A_201
     RDKit          3D

 35 37  0  0  0  0  0  0  0  0999 V2000
    4.0560   -2.5936    7.5441 C   0  0  0  0  0  0  0  0  0  0  0  0
    4.8911   -3.5555    8.1157 C   0  0  0  0  0  0  0  0  0  0  0  0
    1.6483   -1.2151    6.2600 C   0  0  0  0  0  0  0  0  0  0  0  0
    3.7061   -2.6722    6.1845 C   0  0  0  0  0  0  0  0  0  0  0  0
    0.7986   -0.2488    5.6932 C   0  0  0  0  0  0  0  0  0  0  0  0
    5.0555   -4.7037    5.9850 C   0  0  0  0  0  0  0  0  0  0  0  0
    5.3875   -4.6045    7.3402 C   0  0  0  0  0  0  0  0  0  0  0  0
    2.8166   -1.6504    5.5762 C   0  0  0  0  0  0  0  0  0  0  0  0
    6.9669   -6.1009    5.1790 C   0  0  0  0  0  0  0  0  0  0  0  0
    5.5825   -5.7753    5.2484 O   0  0  0  0  0  0  0  0  0  0  0  0
    0.5284    1.2005    3.6392 C   0  0  0  0  0  0  0  0  0  0  0  0
   -0.7686    1.9099    3.8771 C   0  0  0  0  0  0  0  0  0  0  0  0
   -1.8459    0.9194    4.1787 C   0  0  0  0  0  0  0  0  0  0  0  0
    1.3258    1.2786    2.5022 C   0  0  0  0  0  0  0  0  0  0  0  0
    2.2597   -0.1479    3.7751 C   0  0  0  0  0  0  0  0  0  0  0  0
    3.1233   -1.1009    4.3078 C   0  0  0  0  0  0  0  0  0  0  0  0
    4.2123   -3.7327    5.4092 C   0  0  0  0  0  0  0  0  0  0  0  0
    1.1414    0.2659    4.4456 C   0  0  0  0  0  0  0  0  0  0  0  0
   -1.6166   -0.3151    4.0723 O   0  0  0  0  0  0  0  0  0  0  0  0
   -3.0892    1.3608    4.6205 O   0  0  0  0  0  0  0  0  0  0  0  0
    2.3587    0.4629    2.6181 O   0  0  0  0  0  0  0  0  0  0  0  0
    3.6694   -1.7986    8.1694 H   0  0  0  0  0  0  0  0  0  0  0  0
    5.1516   -3.4897    9.1643 H   0  0  0  0  0  0  0  0  0  0  0  0
    1.4046   -1.6106    7.2379 H   0  0  0  0  0  0  0  0  0  0  0  0
   -0.0891    0.0841    6.2151 H   0  0  0  0  0  0  0  0  0  0  0  0
    6.0339   -5.3450    7.7939 H   0  0  0  0  0  0  0  0  0  0  0  0
    7.3529   -6.3455    6.1911 H   0  0  0  0  0  0  0  0  0  0  0  0
    7.0985   -6.9872    4.5251 H   0  0  0  0  0  0  0  0  0  0  0  0
    7.5378   -5.2521    4.7465 H   0  0  0  0  0  0  0  0  0  0  0  0
   -0.6609    2.6152    4.7283 H   0  0  0  0  0  0  0  0  0  0  0  0
   -1.0430    2.5032    2.9781 H   0  0  0  0  0  0  0  0  0  0  0  0
    1.1402    1.9051    1.6397 H   0  0  0  0  0  0  0  0  0  0  0  0
    3.9920   -1.4189    3.7456 H   0  0  0  0  0  0  0  0  0  0  0  0
    3.9632   -3.7871    4.3582 H   0  0  0  0  0  0  0  0  0  0  0  0
   -3.8242    0.7014    4.8465 H   0  0  0  0  0  0  0  0  0  0  0  0
  1  2  4  0
  1  4  4  0
  3  5  4  0
  6  7  4  0
  2  7  4  0
  3  8  4  0
  4  8  1  0
  9 10  1  0
  6 10  1  0
 11 12  1  0
 12 13  1  0
 11 14  4  0
 15 16  4  0
  8 16  4  0
  4 17  4  0
  6 17  4  0
 11 18  4  0
  5 18  4  0
 15 18  4  0
 13 19  2  0
 13 20  1  0
 14 21  4  0
 15 21  4  0
  1 22  1  0
  2 23  1  0
  3 24  1  0
  5 25  1  0
  7 26  1  0
  9 27  1  0
  9 28  1  0
  9 29  1  0
 12 30  1  0
 12 31  1  0
 14 32  1  0
 16 33  1  0
 17 34  1  0
 20 35  1  0
M  END
