8D5D_5DK_A_505
     RDKit          3D

 49 49  0  0  0  0  0  0  0  0999 V2000
   22.8452  -11.6531   31.4888 C   0  0  0  0  0  0  0  0  0  0  0  0
   24.1440  -11.3897   31.9521 C   0  0  0  0  0  0  0  0  0  0  0  0
   24.5579  -10.0475   32.1387 C   0  0  0  0  0  0  0  0  0  0  0  0
   23.6376   -8.9999   31.8575 C   0  0  0  0  0  0  0  0  0  0  0  0
   22.3623   -9.3322   31.3774 C   0  0  0  0  0  0  0  0  0  0  0  0
   29.0993  -10.2104   32.2854 C   0  0  2  0  0  0  0  0  0  0  0  0
   24.9956  -12.4731   32.1962 O   0  0  0  0  0  0  0  0  0  0  0  0
   20.5426   -7.9653   31.0743 O   0  0  0  0  0  0  0  0  0  0  0  0
   21.9654   -9.3168   33.0243 O   0  0  0  0  0  0  0  0  0  0  0  0
   20.5600   -7.1840   33.5644 O   0  0  0  0  0  0  0  0  0  0  0  0
   22.7784   -6.7649   32.2363 O   0  0  0  0  0  0  0  0  0  0  0  0
   26.8327   -9.2466   31.9012 N   0  0  0  0  0  0  0  0  0  0  0  0
   21.4415   -7.7949   32.4990 P   0  0  2  0  0  5  0  0  0  0  0  0
   22.3770  -13.0604   31.2757 C   0  0  2  0  0  0  0  0  0  0  0  0
   25.9168   -9.7699   32.6604 C   0  0  0  0  0  0  0  0  0  0  0  0
   23.9529   -7.5354   32.0934 C   0  0  1  0  0  0  0  0  0  0  0  0
   22.0021  -10.6274   31.2108 N   0  0  0  0  0  0  0  0  0  0  0  0
   28.2090   -8.9459   32.3139 C   0  0  1  0  0  0  0  0  0  0  0  0
   28.2598   -8.1879   33.6217 C   0  0  0  0  0  0  0  0  0  0  0  0
   27.4378   -7.0808   33.8139 O   0  0  0  0  0  0  0  0  0  0  0  0
   29.4005  -10.8087   33.6713 C   0  0  1  0  0  0  0  0  0  0  0  0
   28.3215  -11.8024   34.1150 C   0  0  2  0  0  0  0  0  0  0  0  0
   27.1896  -11.1035   34.7262 N   0  0  0  0  0  0  0  0  0  0  0  0
   27.2845  -10.3550   35.9479 C   0  0  0  0  0  0  0  0  0  0  0  0
   26.5324   -9.1483   36.0960 N   0  0  0  0  0  0  0  0  0  0  0  0
   28.0437  -10.7673   36.9141 N   0  0  0  0  0  0  0  0  0  0  0  0
   29.0989   -8.4982   34.5104 O   0  0  0  0  0  0  0  0  0  0  0  0
   21.6397   -8.5586   31.1513 H   0  0  0  0  0  0  0  0  0  0  0  0
   30.0547   -9.9590   31.7741 H   0  0  0  0  0  0  0  0  0  0  0  0
   28.5919  -10.9809   31.6648 H   0  0  0  0  0  0  0  0  0  0  0  0
   25.8415  -12.4124   32.7453 H   0  0  0  0  0  0  0  0  0  0  0  0
   21.1373   -8.4632   30.4584 H   0  0  0  0  0  0  0  0  0  0  0  0
   22.9310   -9.3414   32.8049 H   0  0  0  0  0  0  0  0  0  0  0  0
   21.3987  -13.0570   30.7505 H   0  0  0  0  0  0  0  0  0  0  0  0
   22.2676  -13.5721   32.2549 H   0  0  0  0  0  0  0  0  0  0  0  0
   23.1071  -13.6265   30.6589 H   0  0  0  0  0  0  0  0  0  0  0  0
   26.1498  -10.0252   33.6863 H   0  0  0  0  0  0  0  0  0  0  0  0
   24.5375   -7.4560   33.0328 H   0  0  0  0  0  0  0  0  0  0  0  0
   24.6331   -7.1203   31.3152 H   0  0  0  0  0  0  0  0  0  0  0  0
   28.6276   -8.2583   31.5483 H   0  0  0  0  0  0  0  0  0  0  0  0
   27.5820   -6.4547   34.5968 H   0  0  0  0  0  0  0  0  0  0  0  0
   30.3749  -11.3413   33.6521 H   0  0  0  0  0  0  0  0  0  0  0  0
   29.4615   -9.9963   34.4251 H   0  0  0  0  0  0  0  0  0  0  0  0
   28.7608  -12.4900   34.8693 H   0  0  0  0  0  0  0  0  0  0  0  0
   27.9960  -12.4290   33.2569 H   0  0  0  0  0  0  0  0  0  0  0  0
   26.2463  -11.2376   34.2972 H   0  0  0  0  0  0  0  0  0  0  0  0
   26.2143   -8.6081   35.2609 H   0  0  0  0  0  0  0  0  0  0  0  0
   26.2913   -8.7892   37.0462 H   0  0  0  0  0  0  0  0  0  0  0  0
   28.1267  -10.2399   37.8116 H   0  0  0  0  0  0  0  0  0  0  0  0
  1  2  2  0
  2  3  1  0
  3  4  2  0
  4  5  1  0
  2  7  1  0
 10 13  2  0
 13  8  1  6
 11 13  1  0
  9 13  1  0
  1 14  1  0
 12 15  2  0
  3 15  1  0
 11 16  1  0
  4 16  1  0
  1 17  1  0
  5 17  2  0
 18  6  1  0
 12 18  1  0
 18 19  1  0
 19 20  1  0
  6 21  1  0
 21 22  1  0
 22 23  1  0
 23 24  1  0
 24 25  1  0
 24 26  2  0
 19 27  2  0
  5 28  1  0
  6 29  1  6
  6 30  1  0
  7 31  1  0
  8 32  1  0
  9 33  1  0
 14 34  1  6
 14 35  1  0
 14 36  1  0
 15 37  1  0
 16 38  1  1
 16 39  1  0
 18 40  1  6
 20 41  1  0
 21 42  1  6
 21 43  1  0
 22 44  1  1
 22 45  1  0
 23 46  1  0
 25 47  1  0
 25 48  1  0
 26 49  1  0
M  END
