
     RDKit          3D

  9  9  0  0  0  0  0  0  0  0999 V2000
    1.3985   22.0544   -0.7741 N   0  0  0  0  0  0  0  0  0  0  0  0
    1.6442   22.5837   -1.9999 C   0  0  0  0  0  0  0  0  0  0  0  0
    1.8716   21.8218   -3.1376 C   0  0  0  0  0  0  0  0  0  0  0  0
    1.8455   20.4311   -3.0110 C   0  0  0  0  0  0  0  0  0  0  0  0
    1.5955   19.8613   -1.7644 C   0  0  0  0  0  0  0  0  0  0  0  0
    1.3801   20.7059   -0.6865 C   0  0  0  0  0  0  0  0  0  0  0  0
    2.1358   22.4282   -4.4549 C   0  0  0  0  0  0  0  0  0  0  0  0
    1.7041   22.0265   -5.5195 O   0  0  0  0  0  0  0  0  0  0  0  0
    2.9284   23.5111   -4.3841 O   0  0  0  0  0  0  0  0  0  0  0  0
  1  2  4  0
  2  3  4  0
  3  4  4  0
  4  5  4  0
  1  6  4  0
  5  6  4  0
  3  7  1  0
  7  8  2  0
  7  9  1  0
M  END
