1KZK_JE2_A_701
     RDKit          3D

 78 81  0  0  0  0  0  0  0  0999 V2000
   18.5367   -3.9078   10.4946 C   0  0  0  0  0  0  0  0  0  0  0  0
   18.2582   -3.0866   11.5840 C   0  0  0  0  0  0  0  0  0  0  0  0
   17.9285   -3.6475   12.8149 C   0  0  0  0  0  0  0  0  0  0  0  0
   17.8565   -5.0411   12.9706 C   0  0  0  0  0  0  0  0  0  0  0  0
   18.0894   -5.8857   11.8501 C   0  0  0  0  0  0  0  0  0  0  0  0
   18.4694   -5.2989   10.6163 C   0  0  0  0  0  0  0  0  0  0  0  0
   17.9178   -7.3848   11.9431 C   0  0  1  0  0  0  0  0  0  0  0  0
   17.5090   -5.5725   14.3057 C   0  0  0  0  0  0  0  0  0  0  0  0
   18.7882   -6.0661    9.4927 O   0  0  0  0  0  0  0  0  0  0  0  0
   17.5626   -6.8142   14.5199 O   0  0  0  0  0  0  0  0  0  0  0  0
   17.6078   -2.5255   18.2672 C   0  0  0  0  0  0  0  0  0  0  0  0
   17.1149   -4.6695   15.3504 N   0  0  0  0  0  0  0  0  0  0  0  0
   17.4252   -1.4674   17.6080 O   0  0  0  0  0  0  0  0  0  0  0  0
   17.0717   -3.8195   17.6899 C   0  0  2  0  0  0  0  0  0  0  0  0
   19.0296   -2.0623   16.2563 C   0  0  0  0  0  0  0  0  0  0  0  0
   19.1978   -3.5654   16.1946 C   0  0  2  0  0  0  0  0  0  0  0  0
   18.7248    0.7296   16.3384 C   0  0  0  0  0  0  0  0  0  0  0  0
   17.9326   -4.4019   16.5366 C   0  0  2  0  0  0  0  0  0  0  0  0
   15.7473   -3.6387   17.2635 O   0  0  0  0  0  0  0  0  0  0  0  0
   18.1104   -1.4187   15.4088 C   0  0  0  0  0  0  0  0  0  0  0  0
   19.8316   -1.2827   17.1071 C   0  0  0  0  0  0  0  0  0  0  0  0
   17.9512   -0.0309   15.4604 C   0  0  0  0  0  0  0  0  0  0  0  0
   19.6720    0.1061   17.1522 C   0  0  0  0  0  0  0  0  0  0  0  0
   20.6306   -2.1332   18.8529 C   0  0  0  0  0  0  0  0  0  0  0  0
   18.3199   -2.4554   19.5255 N   0  0  0  0  0  0  0  0  0  0  0  0
   20.4593   -3.1693   18.1527 O   0  0  0  0  0  0  0  0  0  0  0  0
   19.4896   -1.5920   19.6860 C   0  0  1  0  0  0  0  0  0  0  0  0
   19.8202   -1.5350   21.2029 C   0  0  1  0  0  0  0  0  0  0  0  0
   18.0737   -3.3848   20.6239 C   0  0  2  0  0  0  0  0  0  0  0  0
   21.3066   -1.2519   21.5037 C   0  0  1  0  0  0  0  0  0  0  0  0
   18.9695   -0.4563   21.8988 C   0  0  1  0  0  0  0  0  0  0  0  0
   19.3584   -3.1576   21.8924 S   0  0  0  0  0  0  0  0  0  0  0  0
   21.9134   -1.4920   18.8912 N   0  0  0  0  0  0  0  0  0  0  0  0
   23.0834   -2.0370   18.2071 C   0  0  1  0  0  0  0  0  0  0  0  0
   22.9724   -1.8400   16.7112 C   0  0  0  0  0  0  0  0  0  0  0  0
   23.4339   -0.6590   16.0724 C   0  0  0  0  0  0  0  0  0  0  0  0
   23.2920   -0.5277   14.6792 C   0  0  0  0  0  0  0  0  0  0  0  0
   22.7099   -1.5486   13.9256 C   0  0  0  0  0  0  0  0  0  0  0  0
   22.2535   -2.7080   14.5526 C   0  0  0  0  0  0  0  0  0  0  0  0
   22.3817   -2.8535   15.9347 C   0  0  0  0  0  0  0  0  0  0  0  0
   24.0552    0.4689   16.8536 C   0  0  1  0  0  0  0  0  0  0  0  0
   18.8083   -3.4604    9.5467 H   0  0  0  0  0  0  0  0  0  0  0  0
   18.3101   -2.0109   11.4771 H   0  0  0  0  0  0  0  0  0  0  0  0
   17.7382   -2.9903   13.6555 H   0  0  0  0  0  0  0  0  0  0  0  0
   17.7981   -7.7403   12.9851 H   0  0  0  0  0  0  0  0  0  0  0  0
   16.9923   -7.6975   11.4170 H   0  0  0  0  0  0  0  0  0  0  0  0
   18.7943   -7.8904   11.4884 H   0  0  0  0  0  0  0  0  0  0  0  0
   19.6553   -5.9721    8.9787 H   0  0  0  0  0  0  0  0  0  0  0  0
   16.1207   -4.3631   15.3677 H   0  0  0  0  0  0  0  0  0  0  0  0
   17.0667   -4.5723   18.5145 H   0  0  0  0  0  0  0  0  0  0  0  0
   20.0395   -3.8823   16.8477 H   0  0  0  0  0  0  0  0  0  0  0  0
   19.5149   -3.8250   15.1600 H   0  0  0  0  0  0  0  0  0  0  0  0
   18.6032    1.8046   16.3741 H   0  0  0  0  0  0  0  0  0  0  0  0
   18.3310   -5.3674   16.9188 H   0  0  0  0  0  0  0  0  0  0  0  0
   15.2791   -4.5079   17.3785 H   0  0  0  0  0  0  0  0  0  0  0  0
   17.5107   -1.9928   14.7139 H   0  0  0  0  0  0  0  0  0  0  0  0
   20.5901   -1.7451   17.7249 H   0  0  0  0  0  0  0  0  0  0  0  0
   17.2296    0.4537   14.8160 H   0  0  0  0  0  0  0  0  0  0  0  0
   20.2860    0.7006   17.8141 H   0  0  0  0  0  0  0  0  0  0  0  0
   19.2361   -0.5714   19.3222 H   0  0  0  0  0  0  0  0  0  0  0  0
   18.1214   -4.4310   20.2556 H   0  0  0  0  0  0  0  0  0  0  0  0
   17.0873   -3.1886   21.0815 H   0  0  0  0  0  0  0  0  0  0  0  0
   21.7228   -2.0386   22.1694 H   0  0  0  0  0  0  0  0  0  0  0  0
   21.8985   -1.2326   20.5627 H   0  0  0  0  0  0  0  0  0  0  0  0
   21.4357   -0.2634   21.9932 H   0  0  0  0  0  0  0  0  0  0  0  0
   17.9032   -0.5515   21.6195 H   0  0  0  0  0  0  0  0  0  0  0  0
   19.0358   -0.5587   23.0038 H   0  0  0  0  0  0  0  0  0  0  0  0
   19.3184    0.5606   21.6158 H   0  0  0  0  0  0  0  0  0  0  0  0
   22.0326   -0.6288   19.4691 H   0  0  0  0  0  0  0  0  0  0  0  0
   24.0012   -1.5369   18.5819 H   0  0  0  0  0  0  0  0  0  0  0  0
   23.1919   -3.1131   18.4661 H   0  0  0  0  0  0  0  0  0  0  0  0
   23.6351    0.3664   14.1719 H   0  0  0  0  0  0  0  0  0  0  0  0
   22.6101   -1.4408   12.8531 H   0  0  0  0  0  0  0  0  0  0  0  0
   21.8004   -3.4965   13.9655 H   0  0  0  0  0  0  0  0  0  0  0  0
   22.0169   -3.7612   16.4011 H   0  0  0  0  0  0  0  0  0  0  0  0
   25.0631    0.1776   17.2173 H   0  0  0  0  0  0  0  0  0  0  0  0
   24.1697    1.3821   16.2329 H   0  0  0  0  0  0  0  0  0  0  0  0
   23.4065    0.7229   17.7148 H   0  0  0  0  0  0  0  0  0  0  0  0
  1  2  2  0
  2  3  1  0
  3  4  2  0
  4  5  1  0
  1  6  1  0
  5  6  2  0
  5  7  1  0
  4  8  1  0
  6  9  1  0
  8 10  2  0
  8 12  1  0
 11 13  2  0
 11 14  1  0
 15 16  1  0
 12 18  1  0
 18 16  1  0
 14 18  1  0
 14 19  1  0
 15 20  2  0
 15 21  1  0
 20 22  1  0
 17 22  2  0
 17 23  1  0
 21 23  2  0
 11 25  1  0
 24 26  2  0
 25 27  1  0
 27 24  1  0
 27 28  1  0
 25 29  1  0
 28 30  1  0
 28 31  1  0
 29 32  1  0
 28 32  1  1
 24 33  1  0
 33 34  1  0
 34 35  1  0
 35 36  2  0
 36 37  1  0
 37 38  2  0
 38 39  1  0
 35 40  1  0
 39 40  2  0
 36 41  1  0
  1 42  1  0
  2 43  1  0
  3 44  1  0
  7 45  1  1
  7 46  1  0
  7 47  1  0
  9 48  1  0
 12 49  1  0
 14 50  1  1
 16 51  1  1
 16 52  1  0
 17 53  1  0
 18 54  1  1
 19 55  1  0
 20 56  1  0
 21 57  1  0
 22 58  1  0
 23 59  1  0
 27 60  1  6
 29 61  1  6
 29 62  1  0
 30 63  1  1
 30 64  1  0
 30 65  1  0
 31 66  1  6
 31 67  1  0
 31 68  1  0
 33 69  1  0
 34 70  1  1
 34 71  1  0
 37 72  1  0
 38 73  1  0
 39 74  1  0
 40 75  1  0
 41 76  1  1
 41 77  1  0
 41 78  1  0
M  END
