
     RDKit          3D

 20 20  0  0  0  0  0  0  0  0999 V2000
    8.5467    5.2451   13.2811 C   0  0  0  0  0  0  0  0  0  0  0  0
    8.9309    4.3418   11.0442 C   0  0  0  0  0  0  0  0  0  0  0  0
    9.4298    4.8450   12.2553 C   0  0  0  0  0  0  0  0  0  0  0  0
   13.2407   13.9465   17.9110 C   0  0  0  0  0  0  0  0  0  0  0  0
   12.1522   13.5081   16.9434 C   0  0  0  0  0  0  0  0  0  0  0  0
   11.8203   12.0164   17.0287 C   0  0  0  0  0  0  0  0  0  0  0  0
   10.8114   11.5603   15.9719 C   0  0  0  0  0  0  0  0  0  0  0  0
   11.0924   10.1241   15.5181 C   0  0  0  0  0  0  0  0  0  0  0  0
    9.9292    9.1695   15.8069 C   0  0  0  0  0  0  0  0  0  0  0  0
    9.5328    8.3239   14.5936 C   0  0  0  0  0  0  0  0  0  0  0  0
    8.5424    7.2027   14.9328 C   0  0  0  0  0  0  0  0  0  0  0  0
    9.0266    5.7812   14.6129 C   0  0  0  0  0  0  0  0  0  0  0  0
    7.1628    5.1109   13.0628 C   0  0  0  0  0  0  0  0  0  0  0  0
    6.6870    4.5923   11.8606 C   0  0  0  0  0  0  0  0  0  0  0  0
    7.5578    4.2088   10.8486 C   0  0  0  0  0  0  0  0  0  0  0  0
   10.8865    4.9795   12.4297 C   0  0  0  0  0  0  0  0  0  0  0  0
    5.3504    4.4443   11.6327 O   0  0  0  0  0  0  0  0  0  0  0  0
    9.7896    3.9975   10.0354 O   0  0  0  0  0  0  0  0  0  0  0  0
   11.7388    4.2216   12.0076 O   0  0  0  0  0  0  0  0  0  0  0  0
   11.1909    6.1276   13.0614 O   0  0  0  0  0  0  0  0  0  0  0  0
  2  3  4  0
  1  3  4  0
  4  5  1  0
  5  6  1  0
  6  7  1  0
  7  8  1  0
  8  9  1  0
  9 10  1  0
 10 11  1  0
  1 12  1  0
 11 12  1  0
  1 13  4  0
 13 14  4  0
  2 15  4  0
 14 15  4  0
  3 16  1  0
 14 17  1  0
  2 18  1  0
 16 19  2  0
 16 20  1  0
M  END
