7DUA_HJ0_B_1101
     RDKit          3D

 23 26  0  0  0  0  0  0  0  0999 V2000
   15.3602    8.9971  -14.8070 C   0  0  0  0  0  0  0  0  0  0  0  0
   16.1924    6.8553  -14.0641 C   0  0  0  0  0  0  0  0  0  0  0  0
   17.5073    7.0435  -13.7239 C   0  0  0  0  0  0  0  0  0  0  0  0
   18.0472    5.7831  -13.5037 C   0  0  0  0  0  0  0  0  0  0  0  0
   19.4700    5.4683  -13.1309 C   0  0  0  0  0  0  0  0  0  0  0  0
   13.0320    9.8095  -14.2341 C   0  0  0  0  0  0  0  0  0  0  0  0
   13.5752   13.8061  -16.2143 C   0  0  0  0  0  0  0  0  0  0  0  0
   15.1668   12.1004  -16.1808 C   0  0  0  0  0  0  0  0  0  0  0  0
   14.2621   11.3017  -15.4375 C   0  0  0  0  0  0  0  0  0  0  0  0
    9.8843   11.1254  -15.0569 C   0  0  0  0  0  0  0  0  0  0  0  0
   10.8003   12.1121  -12.7906 C   0  0  0  0  0  0  0  0  0  0  0  0
   16.4604    9.4066  -15.1525 O   0  0  0  0  0  0  0  0  0  0  0  0
   15.1812    7.7580  -14.3096 N   0  0  0  0  0  0  0  0  0  0  0  0
   17.0940    4.9068  -13.6658 N   0  0  0  0  0  0  0  0  0  0  0  0
   15.9161    5.5658  -13.9844 N   0  0  0  0  0  0  0  0  0  0  0  0
   14.2471    9.9491  -14.8571 C   0  0  0  0  0  0  0  0  0  0  0  0
   12.3009   10.9146  -14.4190 N   0  0  0  0  0  0  0  0  0  0  0  0
   12.9936   11.8470  -15.1271 C   0  0  0  0  0  0  0  0  0  0  0  0
   12.6922   13.0872  -15.5387 N   0  0  0  0  0  0  0  0  0  0  0  0
   14.7767   13.3374  -16.5470 N   0  0  0  0  0  0  0  0  0  0  0  0
   16.4135   11.6516  -16.5709 N   0  0  0  0  0  0  0  0  0  0  0  0
   10.9393   11.1261  -13.9472 C   0  0  2  0  0  0  0  0  0  0  0  0
   10.5310   10.6269  -12.5613 C   0  0  0  0  0  0  0  0  0  0  0  0
  2  3  1  0
  3  4  2  0
  4  5  1  0
  8  9  1  0
  1 12  2  0
  2 13  1  0
  1 13  1  0
  4 14  1  0
 14 15  1  0
  2 15  2  0
  6 16  2  0
  1 16  1  0
  9 16  1  0
  6 17  1  0
 17 18  1  0
  9 18  2  0
 18 19  1  0
  7 19  2  0
  8 20  2  0
  7 20  1  0
  8 21  1  0
 11 22  1  0
 17 22  1  0
 22 10  1  6
 11 23  1  0
 22 23  1  0
M  END
