7PJQ_OWH_A_601
     RDKit          3D

 10 10  0  0  0  0  0  0  0  0999 V2000
   19.3136   34.2572   -6.3270 C   0  0  0  0  0  0  0  0  0  0  0  0
   18.7616   31.8884   -5.7294 C   0  0  0  0  0  0  0  0  0  0  0  0
   17.8132   30.8552   -5.4227 C   0  0  0  0  0  0  0  0  0  0  0  0
   16.4672   31.2191   -5.3316 C   0  0  0  0  0  0  0  0  0  0  0  0
   15.8948   28.9801   -4.8428 C   0  0  0  0  0  0  0  0  0  0  0  0
   17.2115   28.5714   -4.9219 C   0  0  0  0  0  0  0  0  0  0  0  0
   18.1901   29.5239   -5.2170 C   0  0  0  0  0  0  0  0  0  0  0  0
   18.3898   33.2673   -5.8205 N   0  0  0  0  0  0  0  0  0  0  0  0
   15.5361   30.2728   -5.0434 N   0  0  0  0  0  0  0  0  0  0  0  0
   20.3178   31.4712   -5.9824 S   0  0  0  0  0  0  0  0  0  0  0  0
  2  3  1  0
  3  4  2  0
  5  6  1  0
  6  7  2  0
  3  7  1  0
  1  8  1  0
  2  8  1  0
  5  9  2  0
  4  9  1  0
  2 10  2  0
M  END
$$$$
