7UAS_MBU_A_401
     RDKit          3D

 71 76  0  0  0  0  0  0  0  0999 V2000
   -8.0572  -30.5883    0.9747 C   0  0  2  0  0  0  0  0  0  0  0  0
   -6.7433  -31.1447    3.7412 C   0  0  1  0  0  0  0  0  0  0  0  0
   -8.7344  -28.1783    3.5955 C   0  0  0  0  0  0  0  0  0  0  0  0
  -12.2442  -28.7648   -1.6465 C   0  0  1  0  0  0  0  0  0  0  0  0
  -12.0220  -23.8447   -1.9913 C   0  0  1  0  0  0  0  0  0  0  0  0
  -11.5571  -23.3074   -3.3390 C   0  0  2  0  0  0  0  0  0  0  0  0
   -4.3248  -26.8280   -7.6453 C   0  0  2  0  0  0  0  0  0  0  0  0
   -5.3280  -27.8981   -8.0473 C   0  0  1  0  0  0  0  0  0  0  0  0
   -1.4761  -28.7984   -4.5473 C   0  0  0  0  0  0  0  0  0  0  0  0
   -3.1091  -26.5729   -4.8070 C   0  0  0  0  0  0  0  0  0  0  0  0
   -6.7252  -26.6865   -4.1376 C   0  0  2  0  0  0  0  0  0  0  0  0
   -5.0347  -28.1009   -5.4869 C   0  0  1  0  0  0  0  0  0  0  0  0
   -5.9425  -28.8659   -3.2510 C   0  0  0  0  0  0  0  0  0  0  0  0
   -7.0407  -28.8318   -2.2579 C   0  0  0  0  0  0  0  0  0  0  0  0
   -8.1057  -27.9180   -2.4302 C   0  0  0  0  0  0  0  0  0  0  0  0
   -8.1381  -27.0405   -3.6682 C   0  0  2  0  0  0  0  0  0  0  0  0
   -9.1762  -27.9233   -1.5048 C   0  0  0  0  0  0  0  0  0  0  0  0
   -9.1528  -28.8011   -0.4139 C   0  0  0  0  0  0  0  0  0  0  0  0
   -8.0850  -29.6867   -0.2300 C   0  0  0  0  0  0  0  0  0  0  0  0
   -7.0341  -29.7008   -1.1550 C   0  0  0  0  0  0  0  0  0  0  0  0
   -7.6584  -30.0083    3.4104 C   0  0  0  0  0  0  0  0  0  0  0  0
   -8.8955  -28.6445    2.3105 C   0  0  0  0  0  0  0  0  0  0  0  0
  -11.6774  -27.3797   -1.7112 C   0  0  0  0  0  0  0  0  0  0  0  0
  -10.3378  -27.0307   -1.6547 C   0  0  0  0  0  0  0  0  0  0  0  0
  -10.3191  -25.6551   -1.7343 C   0  0  0  0  0  0  0  0  0  0  0  0
   -5.4456  -27.2191   -6.6905 C   0  0  1  0  0  0  0  0  0  0  0  0
   -0.9557  -27.5339   -4.2714 C   0  0  0  0  0  0  0  0  0  0  0  0
   -3.5987  -27.8615   -5.0841 C   0  0  0  0  0  0  0  0  0  0  0  0
   -1.7741  -26.4064   -4.4149 C   0  0  0  0  0  0  0  0  0  0  0  0
   -1.2510  -25.0410   -4.0807 C   0  0  1  0  0  0  0  0  0  0  0  0
  -13.6108  -28.7299   -1.8568 F   0  0  0  0  0  0  0  0  0  0  0  0
  -11.6607  -29.5561   -2.6192 F   0  0  0  0  0  0  0  0  0  0  0  0
  -11.9930  -29.3102   -0.4013 F   0  0  0  0  0  0  0  0  0  0  0  0
   -5.9331  -27.9101   -4.3293 N   0  0  0  0  0  0  0  0  0  0  0  0
   -7.9509  -29.0279    4.2912 N   0  0  0  0  0  0  0  0  0  0  0  0
   -8.2201  -29.8009    2.1979 N   0  0  0  0  0  0  0  0  0  0  0  0
  -12.4242  -26.2623   -1.8205 N   0  0  0  0  0  0  0  0  0  0  0  0
  -11.5938  -25.2294   -1.8263 N   0  0  0  0  0  0  0  0  0  0  0  0
   -2.7700  -28.9325   -4.9397 N   0  0  0  0  0  0  0  0  0  0  0  0
   -5.0258  -29.7281   -3.1548 O   0  0  0  0  0  0  0  0  0  0  0  0
   -7.1093  -31.1665    1.0211 H   0  0  0  0  0  0  0  0  0  0  0  0
   -8.8779  -31.3350    0.8946 H   0  0  0  0  0  0  0  0  0  0  0  0
   -5.9373  -31.2054    2.9819 H   0  0  0  0  0  0  0  0  0  0  0  0
   -6.2834  -30.9846    4.7391 H   0  0  0  0  0  0  0  0  0  0  0  0
   -7.3086  -32.0988    3.7630 H   0  0  0  0  0  0  0  0  0  0  0  0
   -9.1495  -27.2643    3.9982 H   0  0  0  0  0  0  0  0  0  0  0  0
  -11.5995  -23.2189   -1.1749 H   0  0  0  0  0  0  0  0  0  0  0  0
  -13.1308  -23.7869   -1.9329 H   0  0  0  0  0  0  0  0  0  0  0  0
  -12.2692  -23.6090   -4.1358 H   0  0  0  0  0  0  0  0  0  0  0  0
  -10.5488  -23.7053   -3.5814 H   0  0  0  0  0  0  0  0  0  0  0  0
  -11.5066  -22.1989   -3.3025 H   0  0  0  0  0  0  0  0  0  0  0  0
   -4.4771  -25.8576   -8.1645 H   0  0  0  0  0  0  0  0  0  0  0  0
   -3.3119  -27.2245   -7.4204 H   0  0  0  0  0  0  0  0  0  0  0  0
   -6.0775  -27.5605   -8.7942 H   0  0  0  0  0  0  0  0  0  0  0  0
   -4.9177  -28.9310   -8.0414 H   0  0  0  0  0  0  0  0  0  0  0  0
   -0.8523  -29.6762   -4.4431 H   0  0  0  0  0  0  0  0  0  0  0  0
   -3.7517  -25.7075   -4.8950 H   0  0  0  0  0  0  0  0  0  0  0  0
   -6.2323  -26.0524   -3.3684 H   0  0  0  0  0  0  0  0  0  0  0  0
   -6.7994  -26.0890   -5.0670 H   0  0  0  0  0  0  0  0  0  0  0  0
   -5.1074  -29.1644   -5.8109 H   0  0  0  0  0  0  0  0  0  0  0  0
   -8.6707  -27.5833   -4.4785 H   0  0  0  0  0  0  0  0  0  0  0  0
   -8.6763  -26.0900   -3.4756 H   0  0  0  0  0  0  0  0  0  0  0  0
   -9.9685  -28.7914    0.3001 H   0  0  0  0  0  0  0  0  0  0  0  0
   -6.2106  -30.3901   -1.0134 H   0  0  0  0  0  0  0  0  0  0  0  0
   -9.4488  -28.1644    1.5133 H   0  0  0  0  0  0  0  0  0  0  0  0
   -9.4459  -25.0148   -1.7274 H   0  0  0  0  0  0  0  0  0  0  0  0
   -6.2606  -26.4695   -6.6089 H   0  0  0  0  0  0  0  0  0  0  0  0
    0.0732  -27.4358   -3.9484 H   0  0  0  0  0  0  0  0  0  0  0  0
   -0.2672  -24.8650   -4.5655 H   0  0  0  0  0  0  0  0  0  0  0  0
   -1.9548  -24.2582   -4.4361 H   0  0  0  0  0  0  0  0  0  0  0  0
   -1.1337  -24.9502   -2.9804 H   0  0  0  0  0  0  0  0  0  0  0  0
  5  6  1  0
  7  8  1  0
 13 14  1  0
 14 15  2  0
 11 16  1  0
 15 16  1  0
 15 17  1  0
 17 18  2  0
 18 19  1  0
  1 19  1  0
 14 20  1  0
 19 20  2  0
  2 21  1  0
  3 22  2  0
  4 23  1  0
 17 24  1  0
 23 24  1  0
 24 25  2  0
  8 26  1  0
  7 26  1  0
 12 26  1  0
  9 27  2  0
 12 28  1  0
 10 28  1  0
 27 29  1  0
 10 29  2  0
 29 30  1  0
  4 31  1  6
  4 32  1  0
  4 33  1  0
 12 34  1  0
 11 34  1  0
 13 34  1  0
 21 35  2  0
  3 35  1  0
  1 36  1  0
 21 36  1  0
 22 36  1  0
 23 37  2  0
 37 38  1  0
 25 38  1  0
  5 38  1  0
  9 39  1  0
 28 39  2  0
 13 40  2  0
  1 41  1  1
  1 42  1  0
  2 43  1  6
  2 44  1  0
  2 45  1  0
  3 46  1  0
  5 47  1  1
  5 48  1  0
  6 49  1  6
  6 50  1  0
  6 51  1  0
  7 52  1  6
  7 53  1  0
  8 54  1  6
  8 55  1  0
  9 56  1  0
 10 57  1  0
 11 58  1  1
 11 59  1  0
 12 60  1  6
 16 61  1  6
 16 62  1  0
 18 63  1  0
 20 64  1  0
 22 65  1  0
 25 66  1  0
 26 67  1  1
 27 68  1  0
 30 69  1  6
 30 70  1  0
 30 71  1  0
M  END
