6XUM_30L_A_401
     RDKit          3D

 25 26  0  0  0  0  0  0  0  0999 V2000
   85.2012    7.7275   64.8268 N   0  0  0  0  0  0  0  0  0  0  0  0
   84.1370    8.6266   64.4100 C   0  0  0  0  0  0  0  0  0  0  0  0
   83.4237    9.3177   65.5444 C   0  0  0  0  0  0  0  0  0  0  0  0
   82.3566   10.1590   65.2596 C   0  0  0  0  0  0  0  0  0  0  0  0
   81.7073   10.7883   66.2967 C   0  0  0  0  0  0  0  0  0  0  0  0
   80.6259   11.7081   65.9677 N   0  0  0  0  0  0  0  0  0  0  0  0
   80.0309   12.2542   66.8815 O   0  0  0  0  0  0  0  0  0  0  0  0
   80.3602   11.8860   64.7861 O   0  0  0  0  0  0  0  0  0  0  0  0
   82.0683   10.6203   67.6187 C   0  0  0  0  0  0  0  0  0  0  0  0
   83.1252    9.7733   67.8951 C   0  0  0  0  0  0  0  0  0  0  0  0
   83.7979    9.1318   66.8664 C   0  0  0  0  0  0  0  0  0  0  0  0
   84.9978    6.7846   65.7471 C   0  0  0  0  0  0  0  0  0  0  0  0
   83.8732    6.4899   66.1427 O   0  0  0  0  0  0  0  0  0  0  0  0
   86.2115    6.1083   66.2992 C   0  0  0  0  0  0  0  0  0  0  0  0
   86.1419    5.6569   67.6185 C   0  0  0  0  0  0  0  0  0  0  0  0
   87.2396    5.0981   68.2430 C   0  0  0  0  0  0  0  0  0  0  0  0
   88.4048    5.0068   67.5378 C   0  0  0  0  0  0  0  0  0  0  0  0
   89.4865    4.4607   68.1449 F   0  0  0  0  0  0  0  0  0  0  0  0
   88.5362    5.4188   66.2337 C   0  0  0  0  0  0  0  0  0  0  0  0
   87.4204    5.9513   65.6144 C   0  0  0  0  0  0  0  0  0  0  0  0
   87.4226    6.2934   64.2840 O   0  0  0  0  0  0  0  0  0  0  0  0
   88.7109    6.4166   63.6980 C   0  0  0  0  0  0  0  0  0  0  0  0
   88.8654    7.7945   63.1076 C   0  0  0  0  0  0  0  0  0  0  0  0
   90.0643    8.0534   62.6731 O   0  0  0  0  0  0  0  0  0  0  0  0
   87.9019    8.5386   62.9643 O   0  0  0  0  0  0  0  0  0  0  0  0
  1  2  1  0
  2  3  1  0
  3  4  2  0
  4  5  1  0
  5  6  1  0
  6  7  2  0
  6  8  1  0
  5  9  2  0
  9 10  1  0
 10 11  2  0
  3 11  1  0
  1 12  1  0
 12 13  2  0
 12 14  1  0
 14 15  2  0
 15 16  1  0
 16 17  2  0
 17 18  1  0
 17 19  1  0
 14 20  1  0
 19 20  2  0
 20 21  1  0
 21 22  1  0
 22 23  1  0
 23 24  2  0
 23 25  1  0
M  CHG  2   6   1   8  -1
M  END
