7NSW_HC4_AAA_402
     RDKit          3D

 20 20  0  0  0  0  0  0  0  0999 V2000
   61.6547   33.4534   42.0006 C   0  0  0  0  0  0  0  0  0  0  0  0
   62.1580   34.5234   41.5623 O   0  0  0  0  0  0  0  0  0  0  0  0
   61.3587   32.4194   41.1188 O   0  0  0  0  0  0  0  0  0  0  0  0
   61.3753   33.2775   43.4355 C   0  0  0  0  0  0  0  0  0  0  0  0
   61.7396   32.1750   44.1060 C   0  0  0  0  0  0  0  0  0  0  0  0
   61.4854   31.9679   45.5532 C   0  0  0  0  0  0  0  0  0  0  0  0
   62.2060   30.9663   46.2260 C   0  0  0  0  0  0  0  0  0  0  0  0
   61.9934   30.7288   47.5872 C   0  0  0  0  0  0  0  0  0  0  0  0
   61.0486   31.4826   48.2938 C   0  0  0  0  0  0  0  0  0  0  0  0
   60.3154   32.4705   47.6312 C   0  0  0  0  0  0  0  0  0  0  0  0
   60.5255   32.7119   46.2698 C   0  0  0  0  0  0  0  0  0  0  0  0
   60.8285   31.2553   49.6504 O   0  0  0  0  0  0  0  0  0  0  0  0
   61.4387   32.5511   40.1175 H   0  0  0  0  0  0  0  0  0  0  0  0
   60.8809   34.0943   43.9423 H   0  0  0  0  0  0  0  0  0  0  0  0
   62.2881   31.4005   43.5818 H   0  0  0  0  0  0  0  0  0  0  0  0
   62.9419   30.3714   45.6984 H   0  0  0  0  0  0  0  0  0  0  0  0
   62.5630   29.9581   48.0909 H   0  0  0  0  0  0  0  0  0  0  0  0
   59.5755   33.0482   48.1707 H   0  0  0  0  0  0  0  0  0  0  0  0
   59.9174   33.4626   45.7851 H   0  0  0  0  0  0  0  0  0  0  0  0
   61.3616   30.5639   50.1647 H   0  0  0  0  0  0  0  0  0  0  0  0
  1  2  2  0
  1  3  1  0
  1  4  1  0
  4  5  2  0
  5  6  1  0
  6  7  2  0
  7  8  1  0
  8  9  2  0
  9 10  1  0
  6 11  1  0
 10 11  2  0
  9 12  1  0
  3 13  1  0
  4 14  1  0
  5 15  1  0
  7 16  1  0
  8 17  1  0
 10 18  1  0
 11 19  1  0
 12 20  1  0
M  END
