7MFP_Z7P_D_401
     RDKit          3D

 50 53  0  0  0  0  0  0  0  0999 V2000
  -39.2998   -8.8204   40.3434 O   0  0  0  0  0  0  0  0  0  0  0  0
  -38.9805   -9.2975   41.4590 C   0  0  0  0  0  0  0  0  0  0  0  0
  -39.5321  -10.4911   41.8226 C   0  0  0  0  0  0  0  0  0  0  0  0
  -39.1740  -11.0145   43.0618 C   0  0  0  0  0  0  0  0  0  0  0  0
  -38.1177   -8.6714   42.2994 N   0  0  0  0  0  0  0  0  0  0  0  0
  -37.7819   -9.1959   43.5002 C   0  0  0  0  0  0  0  0  0  0  0  0
  -36.9769   -8.5965   44.2681 O   0  0  0  0  0  0  0  0  0  0  0  0
  -38.3160  -10.3716   43.8754 N   0  0  0  0  0  0  0  0  0  0  0  0
  -38.0117  -11.0069   45.1439 C   0  0  2  0  0  0  0  0  0  0  0  0
  -37.5147  -12.2883   44.9641 O   0  0  0  0  0  0  0  0  0  0  0  0
  -39.3109  -11.2946   45.9052 C   0  0  2  0  0  0  0  0  0  0  0  0
  -39.8436  -10.1645   46.4715 O   0  0  0  0  0  0  0  0  0  0  0  0
  -38.7401  -12.2610   46.9543 C   0  0  2  0  0  0  0  0  0  0  0  0
  -37.9875  -11.4986   47.8431 O   0  0  0  0  0  0  0  0  0  0  0  0
  -37.7855  -13.0434   46.0827 C   0  0  1  0  0  0  0  0  0  0  0  0
  -38.4274  -14.3853   45.7035 C   0  0  0  0  0  0  0  0  0  0  0  0
  -38.5723  -14.4122   44.3404 O   0  0  0  0  0  0  0  0  0  0  0  0
  -37.1097  -14.3621   43.4893 P   0  0  1  0  0  0  0  0  0  0  0  0
  -37.3090  -15.1171   42.1783 O   0  0  0  0  0  0  0  0  0  0  0  0
  -36.6083  -12.7974   43.1528 O   0  0  0  0  0  0  0  0  0  0  0  0
  -35.9314  -15.2157   44.3435 O   0  0  0  0  0  0  0  0  0  0  0  0
  -34.4450  -15.2157   43.5865 P   0  0  1  0  0  0  0  0  0  0  0  0
  -34.1459  -13.8234   43.0611 O   0  0  0  0  0  0  0  0  0  0  0  0
  -33.2120  -15.6369   44.6969 O   0  0  0  0  0  0  0  0  0  0  0  0
  -34.3422  -16.3072   42.3012 O   0  0  0  0  0  0  0  0  0  0  0  0
  -33.3126  -17.1828   42.5312 C   0  0  1  0  0  0  0  0  0  0  0  0
  -32.1003  -16.4898   42.5775 O   0  0  0  0  0  0  0  0  0  0  0  0
  -31.0205  -17.3694   42.4400 C   0  0  2  0  0  0  0  0  0  0  0  0
  -30.7761  -17.7137   40.9868 C   0  0  0  0  0  0  0  0  0  0  0  0
  -31.2876  -18.5906   43.2649 C   0  0  2  0  0  0  0  0  0  0  0  0
  -32.1875  -18.1675   44.4315 C   0  0  2  0  0  0  0  0  0  0  0  0
  -32.2161  -19.1160   45.4368 O   0  0  0  0  0  0  0  0  0  0  0  0
  -33.5722  -17.9403   43.8073 C   0  0  1  0  0  0  0  0  0  0  0  0
  -34.4260  -17.3145   44.6807 O   0  0  0  0  0  0  0  0  0  0  0  0
  -30.0925  -19.2409   43.7600 N   0  0  0  0  0  0  0  0  0  0  0  0
  -28.9583  -18.8691   43.2544 C   0  0  0  0  0  0  0  0  0  0  0  0
  -27.6757  -19.4013   43.6767 C   0  0  0  0  0  0  0  0  0  0  0  0
  -26.7925  -19.7765   42.6796 C   0  0  0  0  0  0  0  0  0  0  0  0
  -27.1484  -19.6494   41.3384 O   0  0  0  0  0  0  0  0  0  0  0  0
  -25.5391  -20.2845   42.9417 C   0  0  0  0  0  0  0  0  0  0  0  0
  -24.6213  -20.6742   41.8192 C   0  0  0  0  0  0  0  0  0  0  0  0
  -27.2914  -19.5395   44.9997 C   0  0  0  0  0  0  0  0  0  0  0  0
  -26.0309  -20.0509   45.2172 C   0  0  0  0  0  0  0  0  0  0  0  0
  -25.1892  -20.4087   44.2323 N   0  0  0  0  0  0  0  0  0  0  0  0
  -28.2332  -19.1233   46.0392 C   0  0  0  0  0  0  0  0  0  0  0  0
  -29.1609  -20.0607   46.3744 O   0  0  0  0  0  0  0  0  0  0  0  0
  -30.2631  -19.5016   47.5132 P   0  0  2  0  0  0  0  0  0  0  0  0
  -31.3180  -20.7337   47.9709 O   0  0  0  0  0  0  0  0  0  0  0  0
  -31.0818  -18.3517   46.8878 O   0  0  0  0  0  0  0  0  0  0  0  0
  -29.4636  -18.8848   48.8876 O   0  0  0  0  0  0  0  0  0  0  0  0
  1  2  2  0
  2  3  1  0
  3  4  2  0
  2  5  1  0
  5  6  1  0
  6  7  2  0
  4  8  1  0
  6  8  1  0
  9  8  1  6
  9 10  1  0
  9 11  1  0
 11 12  1  1
 11 13  1  0
 13 14  1  1
 10 15  1  0
 13 15  1  0
 15 16  1  6
 16 17  1  0
 17 18  1  0
 18 19  2  0
 18 20  1  6
 18 21  1  0
 21 22  1  0
 22 23  2  0
 22 24  1  1
 22 25  1  0
 26 25  1  1
 26 27  1  0
 27 28  1  0
 28 29  1  6
 28 30  1  0
 30 31  1  0
 31 32  1  1
 31 33  1  0
 26 33  1  0
 33 34  1  1
 30 35  1  1
 35 36  2  0
 36 37  1  0
 37 38  2  0
 38 39  1  0
 38 40  1  0
 40 41  1  0
 37 42  1  0
 42 43  2  0
 40 44  2  0
 43 44  1  0
 42 45  1  0
 45 46  1  0
 46 47  1  0
 47 48  1  1
 47 49  2  0
 47 50  1  0
M  END
$$$$
