7P85_5ZG_A_401
     RDKit          3D

 29 29  0  0  0  0  0  0  0  0999 V2000
   -6.8512  -29.0319  -12.1198 C   0  0  0  0  0  0  0  0  0  0  0  0
   -7.5269  -29.6407  -11.0503 C   0  0  0  0  0  0  0  0  0  0  0  0
   -6.8098  -30.2758  -10.0323 C   0  0  0  0  0  0  0  0  0  0  0  0
   -5.4086  -30.3279  -10.0800 C   0  0  0  0  0  0  0  0  0  0  0  0
   -4.7320  -29.7124  -11.1439 C   0  0  0  0  0  0  0  0  0  0  0  0
   -5.4488  -29.0777  -12.1625 C   0  0  0  0  0  0  0  0  0  0  0  0
   -7.6224  -28.3842  -13.2350 C   0  0  2  0  0  0  0  0  0  0  0  0
   -4.6381  -30.9763   -8.9683 C   0  0  2  0  0  0  0  0  0  0  0  0
   -5.9257  -26.0434  -16.0958 C   0  0  2  0  0  0  0  0  0  0  0  0
   -6.2612  -24.5718  -16.2802 C   0  0  1  0  0  0  0  0  0  0  0  0
   -6.7243  -26.9226  -13.8489 P   0  0  2  0  0  5  0  0  0  0  0  0
   -7.0294  -26.6955  -15.5136 O   0  0  0  0  0  0  0  0  0  0  0  0
   -5.0639  -27.1733  -13.6388 O   0  0  0  0  0  0  0  0  0  0  0  0
   -7.1395  -25.7027  -13.0552 O   0  0  0  0  0  0  0  0  0  0  0  0
   -8.6085  -29.6228  -11.0032 H   0  0  0  0  0  0  0  0  0  0  0  0
   -7.3476  -30.7300   -9.2091 H   0  0  0  0  0  0  0  0  0  0  0  0
   -3.6499  -29.7276  -11.1873 H   0  0  0  0  0  0  0  0  0  0  0  0
   -4.9109  -28.6218  -12.9847 H   0  0  0  0  0  0  0  0  0  0  0  0
   -8.6258  -28.0684  -12.8782 H   0  0  0  0  0  0  0  0  0  0  0  0
   -7.7773  -29.1019  -14.0679 H   0  0  0  0  0  0  0  0  0  0  0  0
   -4.7236  -30.3578   -8.0506 H   0  0  0  0  0  0  0  0  0  0  0  0
   -3.5657  -31.0749   -9.2404 H   0  0  0  0  0  0  0  0  0  0  0  0
   -5.0337  -31.9929   -8.7584 H   0  0  0  0  0  0  0  0  0  0  0  0
   -5.0226  -26.1072  -15.4488 H   0  0  0  0  0  0  0  0  0  0  0  0
   -5.7020  -26.4769  -17.0959 H   0  0  0  0  0  0  0  0  0  0  0  0
   -6.4813  -24.3644  -17.3491 H   0  0  0  0  0  0  0  0  0  0  0  0
   -7.1525  -24.3102  -15.6716 H   0  0  0  0  0  0  0  0  0  0  0  0
   -5.4056  -23.9426  -15.9551 H   0  0  0  0  0  0  0  0  0  0  0  0
   -4.9564  -28.1576  -13.6108 H   0  0  0  0  0  0  0  0  0  0  0  0
  1  2  2  0
  2  3  1  0
  3  4  2  0
  4  5  1  0
  1  6  1  0
  5  6  2  0
  1  7  1  0
  4  8  1  0
  9 10  1  0
  7 11  1  0
 11 12  1  6
  9 12  1  0
 11 13  1  0
 11 14  2  0
  2 15  1  0
  3 16  1  0
  5 17  1  0
  6 18  1  0
  7 19  1  1
  7 20  1  0
  8 21  1  1
  8 22  1  0
  8 23  1  0
  9 24  1  1
  9 25  1  0
 10 26  1  6
 10 27  1  0
 10 28  1  0
 13 29  1  0
M  END
