7MGT_ZD4_A_403
     RDKit          3D

 42 44  0  0  0  0  0  0  0  0999 V2000
   37.0693   37.7902   21.3403 C   0  0  1  0  0  0  0  0  0  0  0  0
   37.5331   33.5324   21.9620 C   0  0  0  0  0  0  0  0  0  0  0  0
   37.3772   38.7809   20.2758 C   0  0  2  0  0  0  0  0  0  0  0  0
   38.3766   38.1667   19.3823 C   0  0  2  0  0  0  0  0  0  0  0  0
   36.5228   35.4584   21.3138 C   0  0  0  0  0  0  0  0  0  0  0  0
   39.2428   37.3687   20.3186 C   0  0  2  0  0  0  0  0  0  0  0  0
   35.4160   34.6822   20.8257 C   0  0  0  0  0  0  0  0  0  0  0  0
   39.7308   36.0818   19.7439 C   0  0  0  0  0  0  0  0  0  0  0  0
   35.4887   33.2983   20.9804 C   0  0  0  0  0  0  0  0  0  0  0  0
   35.0314   36.8651   20.4418 C   0  0  0  0  0  0  0  0  0  0  0  0
   36.5573   32.7614   21.5439 N   0  0  0  0  0  0  0  0  0  0  0  0
   37.5243   34.8209   21.8730 N   0  0  0  0  0  0  0  0  0  0  0  0
   34.4142   32.4708   20.4928 N   0  0  0  0  0  0  0  0  0  0  0  0
   34.4747   35.6497   20.2880 N   0  0  0  0  0  0  0  0  0  0  0  0
   36.1921   36.7198   21.0504 N   0  0  0  0  0  4  0  0  0  0  0  0
   42.4833   34.7168   18.3011 O   0  0  0  0  0  0  0  0  0  0  0  0
   38.9299   35.7099   15.5804 O   0  0  0  0  0  0  0  0  0  0  0  0
   38.0044   39.9385   20.8790 O   0  0  0  0  0  0  0  0  0  0  0  0
   40.2024   34.1124   17.6819 O   0  0  0  0  0  0  0  0  0  0  0  0
   40.4516   36.7911   14.1279 O   0  0  0  0  0  0  0  0  0  0  0  0
   39.1527   39.1525   18.6954 O   0  0  0  0  0  0  0  0  0  0  0  0
   41.3122   35.8171   16.2858 O   0  0  0  0  0  0  0  0  0  0  0  0
   40.5120   34.4246   14.2642 O   0  0  0  0  0  0  0  0  0  0  0  0
   38.4090   37.1400   21.5397 O   0  0  0  0  0  0  0  0  0  0  0  0
   40.6865   36.3945   18.7548 O   0  0  0  0  0  0  0  0  0  0  0  0
   41.1931   35.1938   17.7763 P   0  0  2  0  0  5  0  0  0  0  0  0
   40.2859   35.6516   15.0381 P   0  0  1  0  0  5  0  0  0  0  0  0
   38.9596   32.8333   22.7305 Cl  0  0  0  0  0  0  0  0  0  0  0  0
   36.5865   38.3182   22.1360 H   0  0  0  0  0  0  0  0  0  0  0  0
   36.4850   39.0611   19.7558 H   0  0  0  0  0  0  0  0  0  0  0  0
   37.9239   37.5756   18.6138 H   0  0  0  0  0  0  0  0  0  0  0  0
   40.1410   37.9096   20.5321 H   0  0  0  0  0  0  0  0  0  0  0  0
   40.1803   35.4864   20.5109 H   0  0  0  0  0  0  0  0  0  0  0  0
   38.9198   35.5260   19.3219 H   0  0  0  0  0  0  0  0  0  0  0  0
   34.6194   37.7601   20.1350 H   0  0  0  0  0  0  0  0  0  0  0  0
   33.6245   32.8848   20.0754 H   0  0  0  0  0  0  0  0  0  0  0  0
   34.4699   31.4915   20.5772 H   0  0  0  0  0  0  0  0  0  0  0  0
   38.7922   34.9659   16.1875 H   0  0  0  0  0  0  0  0  0  0  0  0
   38.8098   39.6639   21.3447 H   0  0  0  0  0  0  0  0  0  0  0  0
   40.5371   33.4178   17.0933 H   0  0  0  0  0  0  0  0  0  0  0  0
   39.8412   36.6988   13.3797 H   0  0  0  0  0  0  0  0  0  0  0  0
   39.5927   39.7258   19.3422 H   0  0  0  0  0  0  0  0  0  0  0  0
  1  3  1  0
  3  4  1  0
  4  6  1  0
  5  7  4  0
  6  8  1  0
  7  9  4  0
  2 11  4  0
  9 11  4  0
  2 12  4  0
  5 12  4  0
  9 13  1  0
  7 14  4  0
 10 14  4  0
  5 15  4  0
  1 15  1  0
 10 15  4  0
  3 18  1  0
  4 21  1  0
  6 24  1  0
  1 24  1  0
  8 25  1  0
 16 26  2  0
 26 22  1  1
 26 19  1  0
 25 26  1  0
 23 27  2  0
 27 17  1  6
 22 27  1  0
 20 27  1  0
  2 28  1  0
  1 29  1  6
  3 30  1  1
  4 31  1  1
  6 32  1  6
  8 33  1  0
  8 34  1  0
 10 35  1  0
 13 36  1  0
 13 37  1  0
 17 38  1  0
 18 39  1  0
 19 40  1  0
 20 41  1  0
 21 42  1  0
M  CHG  1  15   1
M  END
