
     RDKit          3D

 16 16  0  0  0  0  0  0  0  0999 V2000
   -7.0501    8.6912   -0.3191 C   0  0  0  0  0  0  0  0  0  0  0  0
   -8.3348    9.2541   -0.2357 C   0  0  0  0  0  0  0  0  0  0  0  0
   -9.0209    9.3082    0.9859 C   0  0  0  0  0  0  0  0  0  0  0  0
   -8.4233    8.6880    2.0947 C   0  0  0  0  0  0  0  0  0  0  0  0
   -7.1431    8.1171    2.0269 C   0  0  0  0  0  0  0  0  0  0  0  0
   -6.4532    8.1264    0.8167 C   0  0  0  0  0  0  0  0  0  0  0  0
   -9.0261    9.9533   -1.7196 S   0  0  0  0  0  6  0  0  0  0  0  0
  -10.1985    8.8198   -2.1319 N   0  0  0  0  0  0  0  0  0  0  0  0
   -8.0083    9.9388   -2.7425 O   0  0  0  0  0  0  0  0  0  0  0  0
   -9.7398   11.1619   -1.3668 O   0  0  0  0  0  0  0  0  0  0  0  0
   -4.8548    7.3829    0.6447 S   0  0  0  0  0  6  0  0  0  0  0  0
   -4.5965    7.3475   -1.0124 N   0  0  0  0  0  0  0  0  0  0  0  0
   -4.9711    5.9925    1.0232 O   0  0  0  0  0  0  0  0  0  0  0  0
   -3.8877    8.2595    1.2570 O   0  0  0  0  0  0  0  0  0  0  0  0
  -10.3529    9.7298    1.1072 N   0  0  0  0  0  0  0  0  0  0  0  0
   -6.5110    7.4594    3.4912 Cl  0  0  0  0  0  0  0  0  0  0  0  0
  1  2  4  0
  2  3  4  0
  3  4  4  0
  4  5  4  0
  1  6  4  0
  5  6  4  0
  2  7  1  0
  7  8  1  0
  7  9  2  0
  7 10  2  0
  6 11  1  0
 11 12  1  0
 11 13  2  0
 11 14  2  0
  3 15  1  0
  5 16  1  0
M  END
