1T40_ID5_A_320
     RDKit          3D

 38 40  0  0  0  0  0  0  0  0999 V2000
   14.3297   -8.1469   19.6971 C   0  0  0  0  0  0  0  0  0  0  0  0
   13.0911  -10.0483   18.0669 C   0  0  0  0  0  0  0  0  0  0  0  0
   14.7290   -8.2677   18.3499 C   0  0  0  0  0  0  0  0  0  0  0  0
   13.3231   -8.9646   20.2147 C   0  0  0  0  0  0  0  0  0  0  0  0
   12.7010   -9.9091   19.3995 C   0  0  0  0  0  0  0  0  0  0  0  0
   14.1161   -9.2471   17.5344 C   0  0  0  0  0  0  0  0  0  0  0  0
   22.4515   -5.5493   14.4601 F   0  0  0  0  0  0  0  0  0  0  0  0
   12.9440   -8.8346   21.5101 F   0  0  0  0  0  0  0  0  0  0  0  0
   14.5111   -9.4310   16.1189 C   0  0  0  0  0  0  0  0  0  0  0  0
   17.7118   -9.0293   14.1335 C   0  0  0  0  0  0  0  0  0  0  0  0
   22.0563  -10.1446   13.1628 F   0  0  0  0  0  0  0  0  0  0  0  0
   15.7050   -7.4234   17.7892 O   0  0  0  0  0  0  0  0  0  0  0  0
   13.6684   -9.8795   15.2941 O   0  0  0  0  0  0  0  0  0  0  0  0
   16.2836   -9.4282   14.3197 C   0  0  2  0  0  0  0  0  0  0  0  0
   16.1355   -6.1745   18.3288 C   0  0  1  0  0  0  0  0  0  0  0  0
   18.1807   -7.7943   14.4386 N   0  0  0  0  0  0  0  0  0  0  0  0
   18.9457  -10.0854   13.6520 S   0  0  0  0  0  0  0  0  0  0  0  0
   19.7180   -5.4317   14.9059 F   0  0  0  0  0  0  0  0  0  0  0  0
   20.1207   -8.8973   13.8151 C   0  0  0  0  0  0  0  0  0  0  0  0
   21.6814   -6.6452   14.2495 C   0  0  0  0  0  0  0  0  0  0  0  0
   19.5234   -7.7245   14.2507 C   0  0  0  0  0  0  0  0  0  0  0  0
   21.4918   -8.9865   13.5858 C   0  0  0  0  0  0  0  0  0  0  0  0
   22.2769   -7.8435   13.8060 C   0  0  0  0  0  0  0  0  0  0  0  0
   20.2944   -6.5818   14.4759 C   0  0  0  0  0  0  0  0  0  0  0  0
   14.9853   -5.2251   18.4416 C   0  0  0  0  0  0  0  0  0  0  0  0
   15.0413   -3.9895   17.8044 O   0  0  0  0  0  0  0  0  0  0  0  0
   13.9811   -5.5294   19.1389 O   0  0  0  0  0  0  0  0  0  0  0  0
   15.8458   -9.1364   15.6829 N   0  0  0  0  0  0  0  0  0  0  0  0
   14.7834   -7.4170   20.3521 H   0  0  0  0  0  0  0  0  0  0  0  0
   12.6025  -10.7958   17.4536 H   0  0  0  0  0  0  0  0  0  0  0  0
   11.9170  -10.5386   19.8008 H   0  0  0  0  0  0  0  0  0  0  0  0
   16.1669  -10.5138   14.1146 H   0  0  0  0  0  0  0  0  0  0  0  0
   15.6554   -8.8619   13.5988 H   0  0  0  0  0  0  0  0  0  0  0  0
   16.6330   -6.3280   19.3107 H   0  0  0  0  0  0  0  0  0  0  0  0
   16.8838   -5.7328   17.6387 H   0  0  0  0  0  0  0  0  0  0  0  0
   23.3451   -7.8835   13.6356 H   0  0  0  0  0  0  0  0  0  0  0  0
   14.3004   -3.6927   17.1807 H   0  0  0  0  0  0  0  0  0  0  0  0
   16.5278   -8.7433   16.3714 H   0  0  0  0  0  0  0  0  0  0  0  0
  1  3  2  0
  1  4  1  0
  2  5  1  0
  4  5  2  0
  2  6  2  0
  3  6  1  0
  4  8  1  0
  6  9  1  0
  3 12  1  0
  9 13  2  0
 10 14  1  0
 12 15  1  0
 10 16  2  0
 10 17  1  0
 17 19  1  0
  7 20  1  0
 16 21  1  0
 19 21  2  0
 11 22  1  0
 19 22  1  0
 20 23  1  0
 22 23  2  0
 18 24  1  0
 20 24  2  0
 21 24  1  0
 15 25  1  0
 25 26  1  0
 25 27  2  0
  9 28  1  0
 14 28  1  0
  1 29  1  0
  2 30  1  0
  5 31  1  0
 14 32  1  6
 14 33  1  0
 15 34  1  1
 15 35  1  0
 23 36  1  0
 26 37  1  0
 28 38  1  0
M  END
