7QTA_URI_A_407
     RDKit          3D

 29 30  0  0  0  0  0  0  0  0999 V2000
   -2.2999   -0.5521    1.8601 N   0  0  0  0  0  4  0  0  0  0  0  0
   -1.3779   -0.4375    0.8476 C   0  0  0  0  0  0  0  0  0  0  0  0
   -0.5714   -1.4882    0.5300 N   0  0  0  0  0  4  0  0  0  0  0  0
   -0.6683   -2.6721    1.1890 C   0  0  0  0  0  0  0  0  0  0  0  0
   -1.6076   -2.8244    2.2027 C   0  0  0  0  0  0  0  0  0  0  0  0
   -2.4265   -1.7446    2.5209 C   0  0  0  0  0  0  0  0  0  0  0  0
   -1.2679    0.6385    0.1973 O   0  0  0  0  0  0  0  0  0  0  0  0
    0.0871   -3.6322    0.8803 O   0  0  0  0  0  0  0  0  0  0  0  0
   -3.2014    0.5708    2.1924 C   0  0  1  0  0  0  0  0  0  0  0  0
   -4.6612    0.1412    2.1006 C   0  0  1  0  0  0  0  0  0  0  0  0
   -5.3509    1.0793    3.0649 C   0  0  1  0  0  0  0  0  0  0  0  0
   -4.2091    1.4942    4.0125 C   0  0  2  0  0  0  0  0  0  0  0  0
   -5.1807    0.1954    0.7920 O   0  0  0  0  0  0  0  0  0  0  0  0
   -5.8608    2.2052    2.3961 O   0  0  0  0  0  0  0  0  0  0  0  0
   -2.9732    1.0268    3.5068 O   0  0  0  0  0  0  0  0  0  0  0  0
   -4.4146    0.9560    5.4333 C   0  0  0  0  0  0  0  0  0  0  0  0
   -4.4319   -0.4454    5.4273 O   0  0  0  0  0  0  0  0  0  0  0  0
    0.1312   -1.3842   -0.2378 H   0  0  0  0  0  0  0  0  0  0  0  0
   -1.7077   -3.7633    2.7334 H   0  0  0  0  0  0  0  0  0  0  0  0
   -3.1680   -1.8719    3.2997 H   0  0  0  0  0  0  0  0  0  0  0  0
   -3.0082    1.4357    1.5172 H   0  0  0  0  0  0  0  0  0  0  0  0
   -4.7683   -0.8994    2.4810 H   0  0  0  0  0  0  0  0  0  0  0  0
   -6.1789    0.5421    3.5858 H   0  0  0  0  0  0  0  0  0  0  0  0
   -4.1569    2.6041    4.0804 H   0  0  0  0  0  0  0  0  0  0  0  0
   -4.9436    1.0722    0.3922 H   0  0  0  0  0  0  0  0  0  0  0  0
   -6.4496    2.6741    3.0434 H   0  0  0  0  0  0  0  0  0  0  0  0
   -5.3737    1.3457    5.8429 H   0  0  0  0  0  0  0  0  0  0  0  0
   -3.5841    1.3161    6.0809 H   0  0  0  0  0  0  0  0  0  0  0  0
   -4.5670   -0.7227    6.3703 H   0  0  0  0  0  0  0  0  0  0  0  0
  1  2  4  0
  2  3  4  0
  3  4  4  0
  4  5  4  0
  1  6  4  0
  5  6  4  0
  2  7  2  0
  4  8  2  0
  9  1  1  0
  9 10  1  0
 10 11  1  0
 11 12  1  0
 10 13  1  0
 11 14  1  0
  9 15  1  0
 12 15  1  0
 12 16  1  0
 16 17  1  0
  3 18  1  0
  5 19  1  0
  6 20  1  0
  9 21  1  6
 10 22  1  1
 11 23  1  1
 12 24  1  1
 13 25  1  0
 14 26  1  0
 16 27  1  0
 16 28  1  0
 17 29  1  0
M  CHG  2   1   1   3   1
M  END
