7T9O_GEI_A_304
     RDKit          3D

 84 87  0  0  0  0  0  0  0  0999 V2000
   13.8355   34.2493   -2.0590 C   0  0  1  0  0  0  0  0  0  0  0  0
   13.6741   34.1886   -0.5044 C   0  0  2  0  0  0  0  0  0  0  0  0
   14.8886   33.5663    0.1895 C   0  0  1  0  0  0  0  0  0  0  0  0
   15.3308   34.1595   -2.4963 C   0  0  1  0  0  0  0  0  0  0  0  0
   16.2784   34.8525   -1.5106 C   0  0  2  0  0  0  0  0  0  0  0  0
   13.0653   33.0746   -2.6995 C   0  0  1  0  0  0  0  0  0  0  0  0
   13.2257   35.5696   -2.5802 C   0  0  2  0  0  0  0  0  0  0  0  0
   20.8793   34.3003   -2.1273 C   0  0  1  0  0  0  0  0  0  0  0  0
   22.3320   34.4712   -1.6501 C   0  0  2  0  0  0  0  0  0  0  0  0
   15.1713   34.5057    2.5629 C   0  0  0  0  0  0  0  0  0  0  0  0
   19.2123   36.3461   -1.2852 C   0  0  0  0  0  0  0  0  0  0  0  0
    9.0834   33.8817    4.9008 C   0  0  2  0  0  0  0  0  0  0  0  0
   14.7601   33.2781    3.1000 C   0  0  0  0  0  0  0  0  0  0  0  0
   10.5786   33.5576    4.7982 C   0  0  2  0  0  0  0  0  0  0  0  0
   16.5936   34.7336    2.2296 C   0  0  0  0  0  0  0  0  0  0  0  0
   17.5132   35.0276    3.2503 C   0  0  0  0  0  0  0  0  0  0  0  0
   18.8099   35.2557    2.9368 N   0  0  0  0  0  0  0  0  0  0  0  0
   19.2860   35.2306    1.6669 C   0  0  0  0  0  0  0  0  0  0  0  0
   18.4095   34.9259    0.5858 C   0  0  0  0  0  0  0  0  0  0  0  0
   17.0391   34.6784    0.8882 C   0  0  0  0  0  0  0  0  0  0  0  0
   16.1000   34.3264   -0.1491 N   0  0  0  0  0  0  0  0  0  0  0  0
   18.9116   34.9289   -0.8612 C   0  0  2  0  0  0  0  0  0  0  0  0
   20.7550   35.5015    1.4887 C   0  0  1  0  0  0  0  0  0  0  0  0
   17.1045   35.0877    4.6942 C   0  0  2  0  0  0  0  0  0  0  0  0
   18.5176   37.4118   -0.7187 O   0  0  0  0  0  0  0  0  0  0  0  0
   20.0957   34.1421   -0.9451 O   0  0  0  0  0  0  0  0  0  0  0  0
   20.0766   36.5755   -2.1739 O   0  0  0  0  0  0  0  0  0  0  0  0
   20.4863   35.5691   -2.9175 C   0  0  2  0  0  0  0  0  0  0  0  0
   20.8231   33.0529   -3.0378 C   0  0  2  0  0  0  0  0  0  0  0  0
   13.4162   33.0634    3.4190 C   0  0  0  0  0  0  0  0  0  0  0  0
   12.4673   34.0845    3.2168 C   0  0  0  0  0  0  0  0  0  0  0  0
   12.8872   35.3110    2.6887 C   0  0  0  0  0  0  0  0  0  0  0  0
   14.2310   35.5264    2.3732 C   0  0  0  0  0  0  0  0  0  0  0  0
   11.1063   33.9285    3.5235 O   0  0  0  0  0  0  0  0  0  0  0  0
    8.8605   35.3102    5.3237 C   0  0  0  0  0  0  0  0  0  0  0  0
    9.9271   36.0748    5.8250 C   0  0  0  0  0  0  0  0  0  0  0  0
    9.7134   37.3906    6.2477 C   0  0  0  0  0  0  0  0  0  0  0  0
    8.4337   37.9494    6.1794 C   0  0  0  0  0  0  0  0  0  0  0  0
    7.3652   37.1912    5.6917 C   0  0  0  0  0  0  0  0  0  0  0  0
    7.5747   35.8750    5.2681 C   0  0  0  0  0  0  0  0  0  0  0  0
    8.2282   39.2252    6.5898 F   0  0  0  0  0  0  0  0  0  0  0  0
   12.7610   33.6241   -0.2134 H   0  0  0  0  0  0  0  0  0  0  0  0
   13.5424   35.2102   -0.0910 H   0  0  0  0  0  0  0  0  0  0  0  0
   14.7230   33.5532    1.2884 H   0  0  0  0  0  0  0  0  0  0  0  0
   14.9968   32.5185   -0.1480 H   0  0  0  0  0  0  0  0  0  0  0  0
   15.6469   33.0939   -2.5585 H   0  0  0  0  0  0  0  0  0  0  0  0
   15.4744   34.5905   -3.5115 H   0  0  0  0  0  0  0  0  0  0  0  0
   16.0938   35.9449   -1.5184 H   0  0  0  0  0  0  0  0  0  0  0  0
   17.3170   34.6836   -1.8528 H   0  0  0  0  0  0  0  0  0  0  0  0
   13.1019   33.1424   -3.8089 H   0  0  0  0  0  0  0  0  0  0  0  0
   13.5086   32.1006   -2.3975 H   0  0  0  0  0  0  0  0  0  0  0  0
   11.9997   33.0845   -2.3830 H   0  0  0  0  0  0  0  0  0  0  0  0
   12.3271   35.8452   -1.9864 H   0  0  0  0  0  0  0  0  0  0  0  0
   12.9213   35.4731   -3.6450 H   0  0  0  0  0  0  0  0  0  0  0  0
   13.9601   36.3999   -2.5027 H   0  0  0  0  0  0  0  0  0  0  0  0
   22.5749   33.7599   -0.8309 H   0  0  0  0  0  0  0  0  0  0  0  0
   22.4961   35.5060   -1.2791 H   0  0  0  0  0  0  0  0  0  0  0  0
   23.0370   34.2917   -2.4902 H   0  0  0  0  0  0  0  0  0  0  0  0
    8.5914   33.1901    5.6167 H   0  0  0  0  0  0  0  0  0  0  0  0
    8.6081   33.7074    3.9112 H   0  0  0  0  0  0  0  0  0  0  0  0
   15.4794   32.4842    3.2591 H   0  0  0  0  0  0  0  0  0  0  0  0
   10.7176   32.4634    4.9276 H   0  0  0  0  0  0  0  0  0  0  0  0
   11.1438   34.0533    5.6155 H   0  0  0  0  0  0  0  0  0  0  0  0
   18.1156   34.5674   -1.5384 H   0  0  0  0  0  0  0  0  0  0  0  0
   20.9307   36.2850    0.7254 H   0  0  0  0  0  0  0  0  0  0  0  0
   21.1976   35.8660    2.4405 H   0  0  0  0  0  0  0  0  0  0  0  0
   21.2846   34.5669    1.2093 H   0  0  0  0  0  0  0  0  0  0  0  0
   16.2574   35.7934    4.8248 H   0  0  0  0  0  0  0  0  0  0  0  0
   17.9489   35.4376    5.3255 H   0  0  0  0  0  0  0  0  0  0  0  0
   16.8029   34.0778    5.0404 H   0  0  0  0  0  0  0  0  0  0  0  0
   18.5187   37.5597    0.2834 H   0  0  0  0  0  0  0  0  0  0  0  0
   20.7449   36.4814   -2.3397 H   0  0  0  0  0  0  0  0  0  0  0  0
   19.4006   35.5918   -3.1458 H   0  0  0  0  0  0  0  0  0  0  0  0
   21.0314   35.6063   -3.8850 H   0  0  0  0  0  0  0  0  0  0  0  0
   19.8249   32.9424   -3.5011 H   0  0  0  0  0  0  0  0  0  0  0  0
   21.0658   32.1380   -2.4580 H   0  0  0  0  0  0  0  0  0  0  0  0
   21.5441   33.1403   -3.8780 H   0  0  0  0  0  0  0  0  0  0  0  0
   13.1296   32.0997    3.8142 H   0  0  0  0  0  0  0  0  0  0  0  0
   12.1686   36.1057    2.5333 H   0  0  0  0  0  0  0  0  0  0  0  0
   14.5393   36.4900    1.9870 H   0  0  0  0  0  0  0  0  0  0  0  0
   10.9214   35.6507    5.8899 H   0  0  0  0  0  0  0  0  0  0  0  0
   10.5400   37.9752    6.6311 H   0  0  0  0  0  0  0  0  0  0  0  0
    6.3731   37.6215    5.6439 H   0  0  0  0  0  0  0  0  0  0  0  0
    6.7358   35.2968    4.9001 H   0  0  0  0  0  0  0  0  0  0  0  0
  1  2  1  1
  2  3  1  0
  1  4  1  0
  4  5  1  0
  1  6  1  0
  1  7  1  0
  8  9  1  0
 10 13  2  0
 12 14  1  0
 10 15  1  0
 15 16  2  0
 16 17  1  0
 17 18  2  0
 18 19  1  0
 15 20  1  0
 19 20  2  0
  5 21  1  0
 20 21  1  0
  3 21  1  0
 19 22  1  0
 11 22  1  0
 18 23  1  0
 16 24  1  0
 11 25  1  0
  8 26  1  1
 22 26  1  0
 11 27  2  0
  8 28  1  0
  8 29  1  0
 13 30  1  0
 30 31  2  0
 31 32  1  0
 32 33  2  0
 10 33  1  0
 31 34  1  0
 14 34  1  0
 12 35  1  0
 35 36  2  0
 36 37  1  0
 37 38  2  0
 38 39  1  0
 39 40  2  0
 35 40  1  0
 38 41  1  0
  2 42  1  6
  2 43  1  0
  3 44  1  1
  3 45  1  0
  4 46  1  6
  4 47  1  0
  5 48  1  1
  5 49  1  0
  6 50  1  6
  6 51  1  0
  6 52  1  0
  7 53  1  1
  7 54  1  0
  7 55  1  0
  9 56  1  1
  9 57  1  0
  9 58  1  0
 12 59  1  1
 12 60  1  0
 13 61  1  0
 14 62  1  1
 14 63  1  0
 22 64  1  6
 23 65  1  6
 23 66  1  0
 23 67  1  0
 24 68  1  6
 24 69  1  0
 24 70  1  0
 25 71  1  0
 28 72  1  1
 28 73  1  0
 28 74  1  0
 29 75  1  6
 29 76  1  0
 29 77  1  0
 30 78  1  0
 32 79  1  0
 33 80  1  0
 36 81  1  0
 37 82  1  0
 39 83  1  0
 40 84  1  0
M  END
