8AEM_LVF_A_407
     RDKit          3D

 13 14  0  0  0  0  0  0  0  0999 V2000
 -136.4562 -184.2299  298.2621 C   0  0  0  0  0  0  0  0  0  0  0  0
 -135.5197 -183.6402  299.0975 C   0  0  0  0  0  0  0  0  0  0  0  0
 -135.6587 -182.3020  299.7428 C   0  0  0  0  0  0  0  0  0  0  0  0
 -135.7845 -182.4573  301.1778 C   0  0  0  0  0  0  0  0  0  0  0  0
 -134.4560 -184.5264  299.2049 C   0  0  0  0  0  0  0  0  0  0  0  0
 -133.2616 -184.4083  299.9155 C   0  0  0  0  0  0  0  0  0  0  0  0
 -135.9773 -185.4123  297.8876 N   0  0  0  0  0  0  0  0  0  0  0  0
 -133.8531 -186.6735  298.3666 C   0  0  0  0  0  0  0  0  0  0  0  0
 -132.3689 -185.4637  299.8251 C   0  0  0  0  0  0  0  0  0  0  0  0
 -134.7517 -185.6346  298.4428 C   0  0  0  0  0  0  0  0  0  0  0  0
 -135.8690 -182.5889  302.3071 N   0  0  0  0  0  0  0  0  0  0  0  0
 -130.8409 -185.3447  300.7014 Cl  0  0  0  0  0  0  0  0  0  0  0  0
 -132.6785 -186.5701  299.0585 C   0  0  0  0  0  0  0  0  0  0  0  0
  1  2  2  0
  2  3  1  0
  3  4  1  6
  2  5  1  0
  5  6  1  0
  1  7  1  0
  6  9  2  0
  7 10  1  0
  5 10  2  0
  8 10  1  0
  4 11  3  0
  9 12  1  0
  9 13  1  0
  8 13  2  0
M  END
$$$$
