8SLG_G5A_B_504
     RDKit          3D

 44 46  0  0  0  0  0  0  0  0999 V2000
  -32.0158   34.2358   17.3549 C   0  0  0  0  0  0  0  0  0  0  0  0
  -34.0525   33.2039   16.5550 N   0  0  0  0  0  0  0  0  0  0  0  0
  -30.8736   33.8025   17.0442 O   0  0  0  0  0  0  0  0  0  0  0  0
  -32.5683   36.5248   15.8954 S   0  0  2  0  0  6  0  0  0  0  0  0
  -30.4296   33.6340   14.7885 N   0  0  0  0  0  0  0  0  0  0  0  0
  -31.6474   34.2568   14.8947 C   0  0  0  0  0  0  0  0  0  0  0  0
  -31.7227   35.6170   15.0048 N   0  0  0  0  0  0  0  0  0  0  0  0
  -30.5650   36.3207   15.0101 C   0  0  0  0  0  0  0  0  0  0  0  0
  -29.3534   35.7300   14.9017 C   0  0  0  0  0  0  0  0  0  0  0  0
  -29.2633   34.3470   14.7878 C   0  0  0  0  0  0  0  0  0  0  0  0
  -28.0057   33.6826   14.6644 N   0  0  0  0  0  0  0  0  0  0  0  0
  -28.3754   36.6556   14.8956 N   0  0  0  0  0  0  0  0  0  0  0  0
  -29.0667   37.8240   15.0070 C   0  0  0  0  0  0  0  0  0  0  0  0
  -30.4115   37.6501   15.0866 N   0  0  0  0  0  0  0  0  0  0  0  0
  -33.1118   33.2645   17.6681 C   0  0  2  0  0  0  0  0  0  0  0  0
  -31.4386   38.6946   15.1371 C   0  0  1  0  0  0  0  0  0  0  0  0
  -31.5266   36.1743   14.8683 O   0  0  0  0  0  0  0  0  0  0  0  0
  -31.7388   39.2291   13.7292 C   0  0  2  0  0  0  0  0  0  0  0  0
  -31.6736   40.6368   13.6916 O   0  0  0  0  0  0  0  0  0  0  0  0
  -32.5002   37.9971   16.1864 O   0  0  0  0  0  0  0  0  0  0  0  0
  -33.1331   38.7108   13.4480 C   0  0  2  0  0  0  0  0  0  0  0  0
  -33.9151   39.6335   12.7341 O   0  0  0  0  0  0  0  0  0  0  0  0
  -32.2780   35.6432   17.3602 N   0  0  0  0  0  0  0  0  0  0  0  0
  -33.6925   38.4863   14.8483 C   0  0  2  0  0  0  0  0  0  0  0  0
  -32.6204   38.1703   15.7077 O   0  0  0  0  0  0  0  0  0  0  0  0
  -34.7280   37.3585   14.8895 C   0  0  1  0  0  0  0  0  0  0  0  0
  -34.1123   36.1599   15.2998 O   0  0  0  0  0  0  0  0  0  0  0  0
  -35.0065   33.0455   16.9529 H   0  0  0  0  0  0  0  0  0  0  0  0
  -34.0744   34.1416   16.0914 H   0  0  0  0  0  0  0  0  0  0  0  0
  -32.5545   33.6686   14.8859 H   0  0  0  0  0  0  0  0  0  0  0  0
  -27.9656   32.6403   14.6183 H   0  0  0  0  0  0  0  0  0  0  0  0
  -27.1136   34.2239   14.6207 H   0  0  0  0  0  0  0  0  0  0  0  0
  -28.5873   38.7946   15.0178 H   0  0  0  0  0  0  0  0  0  0  0  0
  -33.6406   33.5677   18.5987 H   0  0  0  0  0  0  0  0  0  0  0  0
  -32.6720   32.2569   17.8346 H   0  0  0  0  0  0  0  0  0  0  0  0
  -31.0769   39.5191   15.7920 H   0  0  0  0  0  0  0  0  0  0  0  0
  -31.0255   38.8276   12.9751 H   0  0  0  0  0  0  0  0  0  0  0  0
  -32.5952   40.9864   13.5676 H   0  0  0  0  0  0  0  0  0  0  0  0
  -33.0694   37.7441   12.8940 H   0  0  0  0  0  0  0  0  0  0  0  0
  -33.7030   39.4966   11.7742 H   0  0  0  0  0  0  0  0  0  0  0  0
  -32.2977   36.1617   18.2661 H   0  0  0  0  0  0  0  0  0  0  0  0
  -34.1717   39.4221   15.2173 H   0  0  0  0  0  0  0  0  0  0  0  0
  -35.5468   37.6553   15.5812 H   0  0  0  0  0  0  0  0  0  0  0  0
  -35.1500   37.2366   13.8675 H   0  0  0  0  0  0  0  0  0  0  0  0
  1  3  2  0
  5  6  2  0
  6  7  1  0
  7  8  2  0
  8  9  1  0
  9 10  2  0
  5 10  1  0
 10 11  1  0
  9 12  1  0
 12 13  2  0
 13 14  1  0
  8 14  1  0
  2 15  1  0
  1 15  1  0
 16 14  1  0
  4 17  2  0
 16 18  1  0
 18 19  1  0
  4 20  2  0
 18 21  1  0
 21 22  1  0
  1 23  1  0
  4 23  1  0
 21 24  1  0
 24 25  1  0
 16 25  1  0
 24 26  1  0
  4 27  1  6
 26 27  1  0
  2 28  1  0
  2 29  1  0
  6 30  1  0
 11 31  1  0
 11 32  1  0
 13 33  1  0
 15 34  1  1
 15 35  1  0
 16 36  1  1
 18 37  1  6
 19 38  1  0
 21 39  1  6
 22 40  1  0
 23 41  1  0
 24 42  1  1
 26 43  1  1
 26 44  1  0
M  END
