7UP3_NZ0_A_305
     RDKit          3D

 23 25  0  0  0  0  0  0  0  0999 V2000
   -6.6432   18.9040  -16.3927 C   0  0  0  0  0  0  0  0  0  0  0  0
   -7.9239   18.4785  -16.7691 C   0  0  0  0  0  0  0  0  0  0  0  0
   -8.7868   17.6959  -15.8388 C   0  0  0  0  0  0  0  0  0  0  0  0
   -9.4149   18.3295  -14.7140 C   0  0  0  0  0  0  0  0  0  0  0  0
   -8.3628   18.8518  -18.0531 C   0  0  0  0  0  0  0  0  0  0  0  0
   -9.0926   16.3563  -16.0934 C   0  0  0  0  0  0  0  0  0  0  0  0
   -5.7775   22.1655  -19.6489 O   0  0  0  0  0  0  0  0  0  0  0  0
  -12.3427   17.0472  -12.2830 O   0  0  0  0  0  0  0  0  0  0  0  0
   -8.6287   21.8015  -14.2978 N   0  0  0  0  0  0  0  0  0  0  0  0
   -5.4326   20.8071  -19.4979 C   0  0  0  0  0  0  0  0  0  0  0  0
   -8.4551   21.3691  -13.1260 N   0  0  0  0  0  0  0  0  0  0  0  0
   -8.7545   20.0145  -13.1529 N   0  0  0  0  0  0  0  0  0  0  0  0
  -10.3715   17.5543  -13.9764 C   0  0  0  0  0  0  0  0  0  0  0  0
  -11.3617   18.0605  -12.5869 S   0  0  1  0  0  0  0  0  0  0  0  0
  -11.8749   19.3494  -12.9912 O   0  0  0  0  0  0  0  0  0  0  0  0
  -10.4610   18.2582  -11.2575 N   0  0  0  0  0  0  0  0  0  0  0  0
   -9.1026   19.6979  -14.3907 C   0  0  0  0  0  0  0  0  0  0  0  0
   -9.0036   20.8509  -15.1332 N   0  0  0  0  0  0  0  0  0  0  0  0
  -10.6159   16.2935  -14.2049 N   0  0  0  0  0  0  0  0  0  0  0  0
   -9.9576   15.6653  -15.2434 C   0  0  0  0  0  0  0  0  0  0  0  0
   -7.5522   19.5912  -18.9167 C   0  0  0  0  0  0  0  0  0  0  0  0
   -6.2750   20.0096  -18.5321 C   0  0  0  0  0  0  0  0  0  0  0  0
   -5.8262   19.6577  -17.2438 C   0  0  0  0  0  0  0  0  0  0  0  0
  1  2  2  0
  2  3  1  0
  3  4  1  0
  2  5  1  0
  3  6  2  0
  7 10  1  0
  9 11  1  0
 11 12  2  0
  4 13  2  0
  8 14  2  0
 13 14  1  0
 14 15  2  0
 14 16  1  1
  4 17  1  0
 12 17  1  0
 17 18  2  0
  9 18  1  0
 13 19  1  0
 19 20  2  0
  6 20  1  0
  5 21  2  0
 21 22  1  0
 10 22  1  0
  1 23  1  0
 22 23  2  0
M  END
