7A9H_TPP_BBB_702
     RDKit          3D

 26 27  0  0  0  0  0  0  0  0999 V2000
   -8.5549  -10.6033  -33.6410 N   0  0  0  0  0  0  0  0  0  0  0  0
   -7.3092  -10.5739  -33.1516 C   0  0  0  0  0  0  0  0  0  0  0  0
   -6.6831   -9.3894  -32.5262 C   0  0  0  0  0  0  0  0  0  0  0  0
   -6.5849  -11.7113  -33.2396 N   0  0  0  0  0  0  0  0  0  0  0  0
   -7.1064  -12.8438  -33.8058 C   0  0  0  0  0  0  0  0  0  0  0  0
   -6.2672  -13.9548  -33.8687 N   0  0  0  0  0  0  0  0  0  0  0  0
   -8.3735  -12.8865  -34.3065 C   0  0  0  0  0  0  0  0  0  0  0  0
   -9.0939  -11.6769  -34.1947 C   0  0  0  0  0  0  0  0  0  0  0  0
   -9.0849  -14.0010  -34.9018 C   0  0  0  0  0  0  0  0  0  0  0  0
   -9.3159  -15.1431  -33.9627 N   0  0  0  0  0  0  0  0  0  0  0  0
   -8.8001  -16.3359  -34.3915 C   0  0  0  0  0  0  0  0  0  0  0  0
   -9.2175  -17.5849  -33.2063 S   0  0  0  0  0  0  0  0  0  0  0  0
  -10.1202  -16.3167  -32.1422 C   0  0  0  0  0  0  0  0  0  0  0  0
   -9.9698  -15.1396  -32.8445 C   0  0  0  0  0  0  0  0  0  0  0  0
  -10.5746  -13.8792  -32.2350 C   0  0  0  0  0  0  0  0  0  0  0  0
  -10.7392  -16.7167  -30.8931 C   0  0  0  0  0  0  0  0  0  0  0  0
   -9.9656  -17.7488  -30.1144 C   0  0  0  0  0  0  0  0  0  0  0  0
  -10.7089  -18.1705  -29.0062 O   0  0  0  0  0  0  0  0  0  0  0  0
   -9.8515  -19.2926  -28.0778 P   0  0  2  0  0  5  0  0  0  0  0  0
   -8.7234  -19.8551  -28.8944 O   0  0  0  0  0  0  0  0  0  0  0  0
  -10.8405  -20.5753  -27.5848 O   0  0  0  0  0  0  0  0  0  0  0  0
   -9.2252  -18.5600  -26.6872 O   0  0  0  0  0  0  0  0  0  0  0  0
  -10.4254  -17.8979  -25.7293 P   0  0  2  0  0  5  0  0  0  0  0  0
   -9.9985  -18.0315  -24.2904 O   0  0  0  0  0  0  0  0  0  0  0  0
  -11.9202  -18.6228  -26.0154 O   0  0  0  0  0  0  0  0  0  0  0  0
  -10.5253  -16.2283  -26.0490 O   0  0  0  0  0  0  0  0  0  0  0  0
  1  2  2  0
  3  2  1  6
  2  4  1  0
  4  5  2  0
  5  6  1  0
  5  7  1  0
  1  8  1  0
  7  8  2  0
  9  7  1  1
  9 10  1  0
 10 11  2  0
 11 12  1  0
 12 13  1  0
 10 14  1  0
 13 14  2  0
 15 14  1  1
 16 13  1  6
 16 17  1  0
 17 18  1  6
 19 18  1  0
 19 20  2  0
 19 21  1  1
 19 22  1  0
 22 23  1  0
 23 24  2  0
 23 25  1  1
 23 26  1  0
M  CHG  1  10   1
M  END
$$$$
