6Z4N_Q7B_AAA_402
     RDKit          3D

 38 40  0  0  0  0  0  0  0  0999 V2000
   18.7040   10.1364   49.7608 C   0  0  0  0  0  0  0  0  0  0  0  0
   18.1925    8.8374   49.8302 C   0  0  0  0  0  0  0  0  0  0  0  0
   18.0090    8.2144   51.0731 C   0  0  0  0  0  0  0  0  0  0  0  0
   17.4995    6.8056   51.1453 C   0  0  1  0  0  0  0  0  0  0  0  0
   18.3595    8.9004   52.2448 C   0  0  0  0  0  0  0  0  0  0  0  0
   18.8691   10.1998   52.1754 C   0  0  0  0  0  0  0  0  0  0  0  0
   19.0685   10.8222   50.9319 C   0  0  0  0  0  0  0  0  0  0  0  0
   19.6200   12.2262   50.8597 C   0  0  1  0  0  0  0  0  0  0  0  0
   21.1317   12.2599   50.5232 C   0  0  1  0  0  0  0  0  0  0  0  0
   21.5527   11.9153   49.1255 C   0  0  0  0  0  0  0  0  0  0  0  0
   20.8214   12.3926   48.0425 O   0  0  0  0  0  0  0  0  0  0  0  0
   22.5486   11.1676   48.9336 O   0  0  0  0  0  0  0  0  0  0  0  0
   21.8142   13.5271   51.0430 C   0  0  1  0  0  0  0  0  0  0  0  0
   22.2261   12.1663   51.5993 C   0  0  1  0  0  0  0  0  0  0  0  0
   21.7765   11.8125   52.9935 C   0  0  0  0  0  0  0  0  0  0  0  0
   20.5387   11.1741   53.1638 C   0  0  0  0  0  0  0  0  0  0  0  0
   20.1161   10.7785   54.4363 C   0  0  0  0  0  0  0  0  0  0  0  0
   20.9397   10.9915   55.5444 C   0  0  0  0  0  0  0  0  0  0  0  0
   22.1936   11.5855   55.3785 C   0  0  0  0  0  0  0  0  0  0  0  0
   22.6198   11.9812   54.1066 C   0  0  0  0  0  0  0  0  0  0  0  0
   18.8104   10.6070   48.7921 H   0  0  0  0  0  0  0  0  0  0  0  0
   17.9348    8.3198   48.9144 H   0  0  0  0  0  0  0  0  0  0  0  0
   18.3556    6.1096   51.2658 H   0  0  0  0  0  0  0  0  0  0  0  0
   16.8083    6.6824   52.0061 H   0  0  0  0  0  0  0  0  0  0  0  0
   16.9450    6.5413   50.2197 H   0  0  0  0  0  0  0  0  0  0  0  0
   18.2330    8.4320   53.2131 H   0  0  0  0  0  0  0  0  0  0  0  0
   19.1060   10.7195   53.0948 H   0  0  0  0  0  0  0  0  0  0  0  0
   19.0711   12.7818   50.0689 H   0  0  0  0  0  0  0  0  0  0  0  0
   19.4097   12.7619   51.8115 H   0  0  0  0  0  0  0  0  0  0  0  0
   21.1546   13.1783   47.4970 H   0  0  0  0  0  0  0  0  0  0  0  0
   22.5805   13.9783   50.3762 H   0  0  0  0  0  0  0  0  0  0  0  0
   21.1971   14.1659   51.7099 H   0  0  0  0  0  0  0  0  0  0  0  0
   23.2215   11.8070   51.2597 H   0  0  0  0  0  0  0  0  0  0  0  0
   19.8967   10.9923   52.3103 H   0  0  0  0  0  0  0  0  0  0  0  0
   19.1514   10.3042   54.5622 H   0  0  0  0  0  0  0  0  0  0  0  0
   20.6124   10.6839   56.5291 H   0  0  0  0  0  0  0  0  0  0  0  0
   22.8403   11.7296   56.2343 H   0  0  0  0  0  0  0  0  0  0  0  0
   23.6079   12.4075   53.9947 H   0  0  0  0  0  0  0  0  0  0  0  0
  1  2  2  0
  2  3  1  0
  3  4  1  0
  3  5  2  0
  5  6  1  0
  6  7  2  0
  1  7  1  0
  7  8  1  0
  9  8  1  0
  9 10  1  6
 10 11  1  0
 10 12  2  0
  9 13  1  0
 13 14  1  0
  9 14  1  0
 14 15  1  0
 15 16  2  0
 16 17  1  0
 17 18  2  0
 18 19  1  0
 19 20  2  0
 15 20  1  0
  1 21  1  0
  2 22  1  0
  4 23  1  1
  4 24  1  0
  4 25  1  0
  5 26  1  0
  6 27  1  0
  8 28  1  6
  8 29  1  0
 11 30  1  0
 13 31  1  6
 13 32  1  0
 14 33  1  6
 16 34  1  0
 17 35  1  0
 18 36  1  0
 19 37  1  0
 20 38  1  0
M  END
