7REE_4LY_A_1201
     RDKit          3D

 42 47  0  0  0  0  0  0  0  0999 V2000
   11.7044  -16.2649    5.3818 C   0  0  0  0  0  0  0  0  0  0  0  0
   10.3987  -18.9730    5.7632 C   0  0  0  0  0  0  0  0  0  0  0  0
   11.6996  -19.3655    5.5796 C   0  0  0  0  0  0  0  0  0  0  0  0
    5.4844  -17.6639    6.2906 C   0  0  0  0  0  0  0  0  0  0  0  0
    4.1178  -17.6277    6.4083 C   0  0  0  0  0  0  0  0  0  0  0  0
    3.1725  -14.1153    5.3923 C   0  0  0  0  0  0  0  0  0  0  0  0
    2.1472  -12.5715    3.6892 C   0  0  0  0  0  0  0  0  0  0  0  0
   13.9122  -14.1877    6.0208 C   0  0  0  0  0  0  0  0  0  0  0  0
   13.0927  -14.2629    4.7506 C   0  0  2  0  0  0  0  0  0  0  0  0
   13.8947  -14.4447    3.5076 C   0  0  0  0  0  0  0  0  0  0  0  0
   13.5707  -13.3602    2.5548 C   0  0  0  0  0  0  0  0  0  0  0  0
   10.3731  -16.5992    5.2479 C   0  0  0  0  0  0  0  0  0  0  0  0
    9.6696  -17.8081    5.6594 C   0  0  0  0  0  0  0  0  0  0  0  0
    9.7165  -20.1041    6.1520 C   0  0  0  0  0  0  0  0  0  0  0  0
   11.7651  -20.7152    5.8614 C   0  0  0  0  0  0  0  0  0  0  0  0
    7.6769  -18.9071    6.3127 C   0  0  0  0  0  0  0  0  0  0  0  0
    3.3728  -16.4911    6.1179 C   0  0  0  0  0  0  0  0  0  0  0  0
    3.9727  -15.3077    5.6857 C   0  0  0  0  0  0  0  0  0  0  0  0
    3.1019  -13.6831    3.9828 C   0  0  0  0  0  0  0  0  0  0  0  0
    0.2270  -13.5309    4.6142 C   0  0  0  0  0  0  0  0  0  0  0  0
    1.6999  -12.2002    5.9866 C   0  0  0  0  0  0  0  0  0  0  0  0
    2.5185  -13.4232    6.3000 C   0  0  0  0  0  0  0  0  0  0  0  0
    5.3446  -15.3457    5.5682 C   0  0  0  0  0  0  0  0  0  0  0  0
    6.0896  -16.4949    5.8624 C   0  0  0  0  0  0  0  0  0  0  0  0
    9.7765  -15.5269    4.6179 C   0  0  0  0  0  0  0  0  0  0  0  0
   12.7963  -12.8026    5.0322 C   0  0  0  0  0  0  0  0  0  0  0  0
   14.8673  -12.3102    8.5242 C   0  0  0  0  0  0  0  0  0  0  0  0
   14.0040  -13.0677    9.5445 C   0  0  0  0  0  0  0  0  0  0  0  0
    2.0348  -16.6168    6.2779 F   0  0  0  0  0  0  0  0  0  0  0  0
    6.0934  -14.2897    5.1661 F   0  0  0  0  0  0  0  0  0  0  0  0
   13.0684  -13.0879    6.4235 N   0  0  0  0  0  0  0  0  0  0  0  0
   13.3224  -12.4928    1.8102 N   0  0  0  0  0  0  0  0  0  0  0  0
   11.8859  -15.0414    4.8507 N   0  0  0  0  0  0  0  0  0  0  0  0
   10.5435  -21.1441    6.2082 N   0  0  0  0  0  0  0  0  0  0  0  0
    8.4027  -20.0113    6.4039 N   0  0  0  0  0  0  0  0  0  0  0  0
    6.2965  -18.7810    6.5698 N   0  0  0  0  0  0  0  0  0  0  0  0
    1.1178  -12.4077    4.6857 N   0  0  0  0  0  0  0  0  0  0  0  0
    8.3400  -17.7852    5.9299 N   0  0  0  0  0  0  0  0  0  0  0  0
   10.7134  -14.6019    4.3904 N   0  0  0  0  0  0  0  0  0  0  0  0
   14.6602  -11.0579    6.1830 O   0  0  0  0  0  0  0  0  0  0  0  0
   12.7798  -10.8077    7.7005 O   0  0  0  0  0  0  0  0  0  0  0  0
   13.8081  -11.7796    7.2155 S   0  0  2  0  0  6  0  0  0  0  0  0
  2  3  1  0
  4  5  2  0
  8  9  1  0
  9 10  1  0
 10 11  1  6
  1 12  2  0
 12 13  1  0
  2 13  2  0
  2 14  1  0
  3 15  2  0
  5 17  1  0
  6 18  1  0
 17 18  2  0
 19  6  1  6
  7 19  1  0
 21 22  1  0
  6 22  2  0
 18 23  1  0
 23 24  2  0
  4 24  1  0
 12 25  1  0
  9 26  1  0
 27 28  1  6
 17 29  1  0
 23 30  1  0
  8 31  1  6
 26 31  1  6
 11 32  3  0
  9 33  1  1
  1 33  1  0
 15 34  1  0
 14 34  1  0
 16 35  1  0
 14 35  2  0
 16 36  1  0
  4 36  1  0
 21 37  1  1
 20 37  1  6
  7 37  1  1
 13 38  1  0
 16 38  2  0
 25 39  2  0
 33 39  1  0
 41 42  2  0
 40 42  2  0
 27 42  1  0
 42 31  1  6
M  END
$$$$
