7X5N_5M5_A_501
     RDKit          3D

 30 33  0  0  0  0  0  0  0  0999 V2000
   89.5701   84.1733   46.9812 C   0  0  0  0  0  0  0  0  0  0  0  0
   89.4683   84.3084   45.5026 C   0  0  0  0  0  0  0  0  0  0  0  0
   90.5732   84.0636   44.7395 C   0  0  0  0  0  0  0  0  0  0  0  0
   86.2906   86.4126   43.5334 C   0  0  1  0  0  0  0  0  0  0  0  0
   87.2543   87.5207   43.7831 C   0  0  0  0  0  0  0  0  0  0  0  0
   85.1895   86.9945   42.6505 C   0  0  0  0  0  0  0  0  0  0  0  0
   88.2964   84.6720   44.8751 C   0  0  0  0  0  0  0  0  0  0  0  0
   90.4651   84.1934   43.3511 C   0  0  0  0  0  0  0  0  0  0  0  0
   91.6874   83.9155   42.5981 C   0  0  0  0  0  0  0  0  0  0  0  0
   91.9277   84.5286   41.3847 C   0  0  0  0  0  0  0  0  0  0  0  0
   93.0944   84.2442   40.6970 C   0  0  0  0  0  0  0  0  0  0  0  0
   94.0330   83.3666   41.1787 C   0  0  0  0  0  0  0  0  0  0  0  0
   93.8032   82.7477   42.3909 C   0  0  0  0  0  0  0  0  0  0  0  0
   92.6336   83.0379   43.0724 C   0  0  0  0  0  0  0  0  0  0  0  0
   89.2807   84.5589   42.7440 C   0  0  0  0  0  0  0  0  0  0  0  0
   88.1474   84.8101   43.5272 C   0  0  0  0  0  0  0  0  0  0  0  0
   86.9046   85.2012   42.8354 C   0  0  1  0  0  0  0  0  0  0  0  0
   85.8858   84.1274   42.7706 C   0  0  0  0  0  0  0  0  0  0  0  0
   85.2093   83.4177   43.7738 C   0  0  0  0  0  0  0  0  0  0  0  0
   85.3238   83.5359   45.2364 C   0  0  0  0  0  0  0  0  0  0  0  0
   85.3846   83.6064   41.5991 C   0  0  0  0  0  0  0  0  0  0  0  0
   86.7785   85.0645   40.3605 C   0  0  0  0  0  0  0  0  0  0  0  0
   87.2859   85.5936   41.4611 C   0  0  0  0  0  0  0  0  0  0  0  0
   88.2999   86.6215   41.2239 C   0  0  0  0  0  0  0  0  0  0  0  0
   84.3644   82.5365   43.1590 N   0  0  0  0  0  0  0  0  0  0  0  0
   84.4656   82.6455   41.8510 N   0  0  0  0  0  0  0  0  0  0  0  0
   87.1927   85.4943   39.0452 N   0  0  0  0  0  0  0  0  0  0  0  0
   89.1031   87.4651   41.0347 N   0  0  0  0  0  0  0  0  0  0  0  0
   88.8611   83.0363   47.3864 O   0  0  0  0  0  0  0  0  0  0  0  0
   85.8233   84.0670   40.3877 O   0  0  0  0  0  0  0  0  0  0  0  0
  1  2  1  0
  2  3  2  0
  4  5  1  6
  6  4  1  6
  2  7  1  0
  3  8  1  0
  8  9  1  0
  9 10  2  0
 10 11  1  0
 11 12  2  0
 12 13  1  0
  9 14  1  0
 13 14  2  0
  8 15  2  0
 15 16  1  0
  7 16  2  0
 17  4  1  0
 17 16  1  1
 17 18  1  0
 18 19  1  0
 20 19  1  6
 18 21  2  0
 22 23  2  0
 17 23  1  0
 23 24  1  0
 19 25  2  0
 21 26  1  0
 25 26  1  0
 22 27  1  0
 24 28  3  0
  1 29  1  1
 22 30  1  0
 21 30  1  0
M  END
$$$$
