7DIN_MPO_A_201
     RDKit          3D

 13 13  0  0  0  0  0  0  0  0999 V2000
   32.2566   -4.2682  -10.5852 S   0  0  1  0  0  0  0  0  0  0  0  0
   32.2426   -3.5504  -11.9048 O   0  0  0  0  0  0  0  0  0  0  0  0
   32.1846   -5.7581  -10.7623 O   0  0  0  0  0  0  0  0  0  0  0  0
   35.7658   -5.0448   -6.1405 O   0  0  0  0  0  0  0  0  0  0  0  0
   36.1867   -4.1573   -8.7781 N   0  0  0  0  0  0  0  0  0  0  0  0
   33.7436   -3.8354   -9.7122 C   0  0  0  0  0  0  0  0  0  0  0  0
   30.9046   -3.7857   -9.7238 O   0  0  0  0  0  0  0  0  0  0  0  0
   34.8607   -3.5819  -10.7064 C   0  0  0  0  0  0  0  0  0  0  0  0
   36.0910   -4.2693  -10.2036 C   0  0  0  0  0  0  0  0  0  0  0  0
   34.8547   -4.2328   -8.2365 C   0  0  0  0  0  0  0  0  0  0  0  0
   34.7216   -4.4425   -6.7892 C   0  0  0  0  0  0  0  0  0  0  0  0
   37.0074   -4.8303   -6.6700 C   0  0  0  0  0  0  0  0  0  0  0  0
   36.9842   -5.1777   -8.1544 C   0  0  0  0  0  0  0  0  0  0  0  0
  1  2  2  0
  1  3  2  0
  1  6  1  0
  1  7  1  1
  6  8  1  0
  5  9  1  0
  8  9  1  0
  5 10  1  0
  4 11  1  0
 10 11  1  0
  4 12  1  0
  5 13  1  0
 12 13  1  0
M  END
$$$$
