7JMV_4NC_A_301
     RDKit          3D

 11 11  0  0  0  0  0  0  0  0999 V2000
   38.8422  -30.0162  -12.8858 C   0  0  0  0  0  0  0  0  0  0  0  0
   38.7702  -31.3772  -12.7465 C   0  0  0  0  0  0  0  0  0  0  0  0
   38.0830  -32.1302  -13.6699 C   0  0  0  0  0  0  0  0  0  0  0  0
   37.4617  -31.4970  -14.7391 C   0  0  0  0  0  0  0  0  0  0  0  0
   37.5324  -30.1238  -14.8871 C   0  0  0  0  0  0  0  0  0  0  0  0
   38.2217  -29.3698  -13.9493 C   0  0  0  0  0  0  0  0  0  0  0  0
   39.5985  -29.2793  -12.0154 O   0  0  0  0  0  0  0  0  0  0  0  0
   39.3881  -31.9795  -11.6621 O   0  0  0  0  0  0  0  0  0  0  0  0
   36.8333  -32.3085  -15.7512 N   0  0  0  0  0  0  0  0  0  0  0  0
   36.2340  -31.8533  -16.6741 O   0  0  0  0  0  0  0  0  0  0  0  0
   37.1828  -33.6578  -15.7792 O   0  0  0  0  0  0  0  0  0  0  0  0
  1  2  2  0
  2  3  1  0
  3  4  2  0
  4  5  1  0
  1  6  1  0
  5  6  2  0
  1  7  1  0
  2  8  1  0
  4  9  1  0
  9 10  2  0
  9 11  1  0
M  CHG  2   9   1  11  -1
M  END
