6M73_FNR_A_401
     RDKit          3D

 31 33  0  0  0  0  0  0  0  0999 V2000
   27.2686    8.0176   36.3922 C   0  0  0  0  0  0  0  0  0  0  0  0
   27.9569    8.7158   37.4188 N   0  0  0  0  0  0  0  0  0  0  0  0
   28.1902   10.0739   37.2856 C   0  0  0  0  0  0  0  0  0  0  0  0
   28.7127   10.7781   38.3329 N   0  0  0  0  0  0  0  0  0  0  0  0
   28.8743   12.1314   38.2887 C   0  0  0  0  0  0  0  0  0  0  0  0
   29.3376   12.7295   39.2493 O   0  0  0  0  0  0  0  0  0  0  0  0
   28.4739   12.7609   37.1375 N   0  0  0  0  0  0  0  0  0  0  0  0
   27.9447   12.1317   36.0226 C   0  0  0  0  0  0  0  0  0  0  0  0
   27.6266   12.8041   35.0345 O   0  0  0  0  0  0  0  0  0  0  0  0
   27.7893   10.7443   36.1036 C   0  0  0  0  0  0  0  0  0  0  0  0
   27.3216   10.0191   35.0521 N   0  0  0  0  0  0  0  0  0  0  0  0
   26.9664    8.6905   35.1914 C   0  0  0  0  0  0  0  0  0  0  0  0
   26.2994    8.0313   34.1777 C   0  0  0  0  0  0  0  0  0  0  0  0
   25.8758    6.7392   34.3335 C   0  0  0  0  0  0  0  0  0  0  0  0
   25.1109    6.0548   33.2332 C   0  0  0  0  0  0  0  0  0  0  0  0
   26.1467    6.0557   35.5643 C   0  0  0  0  0  0  0  0  0  0  0  0
   25.6800    4.6386   35.7517 C   0  0  0  0  0  0  0  0  0  0  0  0
   26.8314    6.7040   36.5639 C   0  0  0  0  0  0  0  0  0  0  0  0
   28.2339    8.0377   38.7189 C   0  0  0  0  0  0  0  0  0  0  0  0
   27.2948    8.5036   39.8391 C   0  0  2  0  0  0  0  0  0  0  0  0
   27.5299    9.8800   40.1560 O   0  0  0  0  0  0  0  0  0  0  0  0
   27.4526    7.7163   41.1450 C   0  0  2  0  0  0  0  0  0  0  0  0
   28.8509    7.4249   41.3535 O   0  0  0  0  0  0  0  0  0  0  0  0
   26.6314    6.4256   41.2472 C   0  0  2  0  0  0  0  0  0  0  0  0
   25.5339    6.4534   40.3266 O   0  0  0  0  0  0  0  0  0  0  0  0
   26.0944    6.2312   42.6476 C   0  0  0  0  0  0  0  0  0  0  0  0
   25.1805    5.1102   42.7096 O   0  0  0  0  0  0  0  0  0  0  0  0
   23.6633    5.2314   42.1185 P   0  0  2  0  0  0  0  0  0  0  0  0
   23.3261    3.8327   41.6880 O   0  0  0  0  0  0  0  0  0  0  0  0
   23.6942    6.1883   40.9538 O   0  0  0  0  0  0  0  0  0  0  0  0
   22.7312    5.7412   43.2067 O   0  0  0  0  0  0  0  0  0  0  0  0
  1  2  1  0
  2  3  1  0
  3  4  1  0
  4  5  1  0
  5  6  2  0
  5  7  1  0
  7  8  1  0
  8  9  2  0
  3 10  2  0
  8 10  1  0
 10 11  1  0
  1 12  2  0
 11 12  1  0
 12 13  1  0
 13 14  2  0
 14 15  1  0
 14 16  1  0
 16 17  1  0
  1 18  1  0
 16 18  2  0
  2 19  1  0
 19 20  1  0
 20 21  1  1
 20 22  1  0
 22 23  1  6
 22 24  1  0
 24 25  1  6
 24 26  1  0
 26 27  1  0
 27 28  1  0
 28 29  1  6
 28 30  2  0
 28 31  1  0
M  END
