7Z1Q_NIO_A_301
     RDKit          3D

 14 14  0  0  0  0  0  0  0  0999 V2000
    1.3781   21.9709   -0.7515 N   0  0  0  0  0  0  0  0  0  0  0  0
    1.5671   21.1679   -1.8328 C   0  0  0  0  0  0  0  0  0  0  0  0
    1.3048   21.6486   -3.1279 C   0  0  0  0  0  0  0  0  0  0  0  0
    0.8469   22.9685   -3.2699 C   0  0  0  0  0  0  0  0  0  0  0  0
    0.6615   23.7713   -2.1428 C   0  0  0  0  0  0  0  0  0  0  0  0
    0.9354   23.2494   -0.8783 C   0  0  0  0  0  0  0  0  0  0  0  0
    1.5049   20.7887   -4.3144 C   0  0  0  0  0  0  0  0  0  0  0  0
    1.9163   19.6041   -4.1824 O   0  0  0  0  0  0  0  0  0  0  0  0
    1.2403   21.2807   -5.5899 O   0  0  0  0  0  0  0  0  0  0  0  0
    1.9213   20.1569   -1.6784 H   0  0  0  0  0  0  0  0  0  0  0  0
    0.6324   23.3800   -4.2481 H   0  0  0  0  0  0  0  0  0  0  0  0
    0.3087   24.7890   -2.2487 H   0  0  0  0  0  0  0  0  0  0  0  0
    0.7961   23.8607    0.0033 H   0  0  0  0  0  0  0  0  0  0  0  0
    0.9088   22.2287   -5.7236 H   0  0  0  0  0  0  0  0  0  0  0  0
  1  2  2  0
  2  3  1  0
  3  4  2  0
  4  5  1  0
  1  6  1  0
  5  6  2  0
  3  7  1  0
  7  8  2  0
  7  9  1  0
  2 10  1  0
  4 11  1  0
  5 12  1  0
  6 13  1  0
  9 14  1  0
M  END
