7Z1Q_NIO_A_301
     RDKit          3D

  9  9  0  0  0  0  0  0  0  0999 V2000
    2.0630   20.0261   -3.3763 N   0  0  0  0  0  0  0  0  0  0  0  0
    2.1725   20.9749   -4.3208 C   0  0  0  0  0  0  0  0  0  0  0  0
    1.8498   22.3019   -4.0804 C   0  0  0  0  0  0  0  0  0  0  0  0
    1.3997   22.6748   -2.8333 C   0  0  0  0  0  0  0  0  0  0  0  0
    1.2955   21.6828   -1.8791 C   0  0  0  0  0  0  0  0  0  0  0  0
    1.6203   20.3616   -2.1303 C   0  0  0  0  0  0  0  0  0  0  0  0
    1.9812   23.3034   -5.1294 C   0  0  0  0  0  0  0  0  0  0  0  0
    2.3915   22.9616   -6.2905 O   0  0  0  0  0  0  0  0  0  0  0  0
    1.6850   24.6253   -4.9465 O   0  0  0  0  0  0  0  0  0  0  0  0
  1  2  2  0
  2  3  1  0
  3  4  2  0
  4  5  1  0
  1  6  1  0
  5  6  2  0
  3  7  1  0
  7  8  2  0
  7  9  1  0
M  END
$$$$
