1XOQ_ROF_B_501
     RDKit          3D

 40 42  0  0  0  0  0  0  0  0999 V2000
    1.4197    1.9905    2.2113 O   0  0  0  0  0  0  0  0  0  0  0  0
   -3.5350   -3.4618   -2.7416 C   0  0  0  0  0  0  0  0  0  0  0  0
   -2.2174   -4.1916   -2.9584 C   0  0  0  0  0  0  0  0  0  0  0  0
   -2.2886   -2.6822   -3.1306 C   0  0  0  0  0  0  0  0  0  0  0  0
    0.7154    1.0540    1.7427 C   0  0  0  0  0  0  0  0  0  0  0  0
    1.1440    0.3698    0.4990 C   0  0  0  0  0  0  0  0  0  0  0  0
    2.4826    0.4397    0.0830 C   0  0  0  0  0  0  0  0  0  0  0  0
    2.8965   -0.1966   -1.0881 C   0  0  0  0  0  0  0  0  0  0  0  0
    1.9754   -0.9120   -1.8748 C   0  0  0  0  0  0  0  0  0  0  0  0
    2.3529   -1.5684   -3.0579 O   0  0  0  0  0  0  0  0  0  0  0  0
    3.6677   -1.5671   -3.6067 C   0  0  0  0  0  0  0  0  0  0  0  0
    3.6933   -2.3861   -4.7188 F   0  0  0  0  0  0  0  0  0  0  0  0
    4.0199   -0.2842   -3.9854 F   0  0  0  0  0  0  0  0  0  0  0  0
    0.6323   -0.9802   -1.4762 C   0  0  0  0  0  0  0  0  0  0  0  0
   -0.2646   -1.6959   -2.2854 O   0  0  0  0  0  0  0  0  0  0  0  0
   -1.6515   -1.8642   -2.0065 C   0  0  0  0  0  0  0  0  0  0  0  0
    0.2213   -0.3357   -0.2926 C   0  0  0  0  0  0  0  0  0  0  0  0
   -0.4757    0.6484    2.4362 N   0  0  0  0  0  0  0  0  0  0  0  0
   -1.0415    1.4251    3.5028 C   0  0  0  0  0  0  0  0  0  0  0  0
   -1.4735    2.7483    3.2844 C   0  0  0  0  0  0  0  0  0  0  0  0
   -1.4045    3.4969    1.6936 Cl  0  0  0  0  0  0  0  0  0  0  0  0
   -2.0253    3.4712    4.3464 C   0  0  0  0  0  0  0  0  0  0  0  0
   -2.1533    2.8985    5.5715 N   0  0  0  0  0  0  0  0  0  0  0  0
   -1.7600    1.6198    5.8063 C   0  0  0  0  0  0  0  0  0  0  0  0
   -1.2035    0.8545    4.7776 C   0  0  0  0  0  0  0  0  0  0  0  0
   -0.6870   -0.7920    5.1170 Cl  0  0  0  0  0  0  0  0  0  0  0  0
   -4.2664   -3.6019   -3.5653 H   0  0  0  0  0  0  0  0  0  0  0  0
   -3.8447   -3.3966   -1.6764 H   0  0  0  0  0  0  0  0  0  0  0  0
   -1.7435   -4.5575   -2.0223 H   0  0  0  0  0  0  0  0  0  0  0  0
   -2.1701   -4.7611   -3.9105 H   0  0  0  0  0  0  0  0  0  0  0  0
   -2.2598   -2.3143   -4.1785 H   0  0  0  0  0  0  0  0  0  0  0  0
    3.2153    0.9792    0.6706 H   0  0  0  0  0  0  0  0  0  0  0  0
    3.9376   -0.1269   -1.3709 H   0  0  0  0  0  0  0  0  0  0  0  0
    4.3946   -1.9561   -2.8628 H   0  0  0  0  0  0  0  0  0  0  0  0
   -2.1474   -0.8707   -1.9755 H   0  0  0  0  0  0  0  0  0  0  0  0
   -1.7741   -2.3595   -1.0174 H   0  0  0  0  0  0  0  0  0  0  0  0
   -0.8184   -0.3639   -0.0003 H   0  0  0  0  0  0  0  0  0  0  0  0
   -0.8306   -0.3241    2.2970 H   0  0  0  0  0  0  0  0  0  0  0  0
   -2.3645    4.4876    4.1959 H   0  0  0  0  0  0  0  0  0  0  0  0
   -1.8799    1.1986    6.7958 H   0  0  0  0  0  0  0  0  0  0  0  0
  2  3  1  0
  2  4  1  0
  3  4  1  0
  1  5  2  0
  5  6  1  0
  6  7  2  0
  7  8  1  0
  8  9  2  0
  9 10  1  0
 10 11  1  0
 11 12  1  0
 11 13  1  0
  9 14  1  0
 14 15  1  0
  4 16  1  0
 15 16  1  0
  6 17  1  0
 14 17  2  0
  5 18  1  0
 18 19  1  0
 19 20  2  0
 20 21  1  0
 20 22  1  0
 22 23  2  0
 23 24  1  0
 19 25  1  0
 24 25  2  0
 25 26  1  0
  2 27  1  0
  2 28  1  0
  3 29  1  0
  3 30  1  0
  4 31  1  0
  7 32  1  0
  8 33  1  0
 11 34  1  0
 16 35  1  0
 16 36  1  0
 17 37  1  0
 18 38  1  0
 22 39  1  0
 24 40  1  0
M  END
