7T3F_EM0_A_201
     RDKit          3D

 24 26  0  0  0  0  0  0  0  0999 V2000
   43.1284   38.5373   76.5327 F   0  0  0  0  0  0  0  0  0  0  0  0
   43.8725   38.0950   77.5704 C   0  0  0  0  0  0  0  0  0  0  0  0
   43.4592   38.3803   78.8432 C   0  0  0  0  0  0  0  0  0  0  0  0
   42.2066   39.1885   79.0859 C   0  0  0  0  0  0  0  0  0  0  0  0
   44.2161   37.8785   79.9166 C   0  0  0  0  0  0  0  0  0  0  0  0
   45.3550   37.0524   79.7958 C   0  0  0  0  0  0  0  0  0  0  0  0
   45.7344   36.8664   78.4361 C   0  0  0  0  0  0  0  0  0  0  0  0
   44.9976   37.3346   77.3367 C   0  0  0  0  0  0  0  0  0  0  0  0
   46.2608   36.5359   81.0489 S   0  0  1  0  0  0  0  0  0  0  0  0
   45.6305   36.9905   82.2439 O   0  0  0  0  0  0  0  0  0  0  0  0
   46.4103   35.1044   80.8741 O   0  0  0  0  0  0  0  0  0  0  0  0
   47.6862   37.1766   80.8469 N   0  0  0  0  0  0  0  0  0  0  0  0
   47.8760   38.5306   80.4794 C   0  0  0  0  0  0  0  0  0  0  0  0
   47.8269   39.5842   81.3926 C   0  0  0  0  0  0  0  0  0  0  0  0
   47.9612   40.9056   80.9853 C   0  0  0  0  0  0  0  0  0  0  0  0
   47.9183   41.9948   81.9695 C   0  0  0  0  0  0  0  0  0  0  0  0
   47.9773   43.3306   81.3806 N   0  0  0  0  0  0  0  0  0  0  0  0
   47.8574   44.4669   82.2872 C   0  0  0  0  0  0  0  0  0  0  0  0
   48.1845   43.5569   80.0183 C   0  0  0  0  0  0  0  0  0  0  0  0
   48.2620   44.7094   79.5821 O   0  0  0  0  0  0  0  0  0  0  0  0
   48.3120   42.5083   79.2021 N   0  0  0  0  0  0  0  0  0  0  0  0
   48.1436   41.2107   79.6176 C   0  0  0  0  0  0  0  0  0  0  0  0
   48.1628   40.1746   78.6819 C   0  0  0  0  0  0  0  0  0  0  0  0
   48.0117   38.8528   79.1190 C   0  0  0  0  0  0  0  0  0  0  0  0
  1  2  1  0
  2  3  2  0
  3  4  1  0
  3  5  1  0
  5  6  2  0
  6  7  1  0
  2  8  1  0
  7  8  2  0
  6  9  1  0
  9 10  2  0
  9 11  2  0
  9 12  1  6
 12 13  1  0
 13 14  2  0
 14 15  1  0
 15 16  1  0
 16 17  1  0
 17 18  1  0
 17 19  1  0
 19 20  2  0
 19 21  1  0
 21 22  1  0
 15 22  2  0
 22 23  1  0
 23 24  2  0
 13 24  1  0
M  END
