1Y6B_AAX_A_201
     RDKit          3D

 34 38  0  0  0  0  0  0  0  0999 V2000
    0.5308   40.0718   20.5326 O   0  0  0  0  0  0  0  0  0  0  0  0
   -0.4705   40.6381   19.7155 S   0  0  1  0  0  0  0  0  0  0  0  0
   -0.9054   41.8918   20.2424 O   0  0  0  0  0  0  0  0  0  0  0  0
    0.1495   40.6999   18.2510 N   0  0  0  0  0  0  0  0  0  0  0  0
    1.5558   41.0866   18.1374 C   0  0  0  0  0  0  0  0  0  0  0  0
    2.0039   41.2914   16.6908 C   0  0  2  0  0  0  0  0  0  0  0  0
    3.4545   40.8998   16.4126 C   0  0  0  0  0  0  0  0  0  0  0  0
    3.0470   42.3670   16.4355 C   0  0  0  0  0  0  0  0  0  0  0  0
   -1.8174   39.6906   19.7570 C   0  0  0  0  0  0  0  0  0  0  0  0
   -3.0023   40.2028   19.2435 C   0  0  0  0  0  0  0  0  0  0  0  0
   -4.1829   39.4607   19.2973 C   0  0  0  0  0  0  0  0  0  0  0  0
   -1.8584   38.3898   20.3153 C   0  0  0  0  0  0  0  0  0  0  0  0
   -3.0356   37.6070   20.3525 C   0  0  0  0  0  0  0  0  0  0  0  0
   -4.1970   38.1593   19.8354 C   0  0  0  0  0  0  0  0  0  0  0  0
   -5.3318   37.3930   19.8745 O   0  0  0  0  0  0  0  0  0  0  0  0
   -6.6678   37.9166   19.9410 C   0  0  0  0  0  0  0  0  0  0  0  0
   -3.0834   36.2849   20.8044 N   0  0  0  0  0  0  0  0  0  0  0  0
   -2.0098   35.4577   20.8850 C   0  0  0  0  0  0  0  0  0  0  0  0
   -0.7693   35.9396   21.0848 O   0  0  0  0  0  0  0  0  0  0  0  0
   -0.0003   34.8344   21.2437 C   0  0  0  0  0  0  0  0  0  0  0  0
   -0.7879   33.6998   21.0527 C   0  0  0  0  0  0  0  0  0  0  0  0
   -2.0777   34.0913   20.8457 N   0  0  0  0  0  0  0  0  0  0  0  0
    1.4375   35.0243   21.4173 C   0  0  0  0  0  0  0  0  0  0  0  0
    2.3378   34.0118   21.0871 C   0  0  0  0  0  0  0  0  0  0  0  0
    3.7098   34.2340   21.2091 C   0  0  0  0  0  0  0  0  0  0  0  0
    4.1886   35.5013   21.6012 C   0  0  0  0  0  0  0  0  0  0  0  0
    3.2726   36.5195   21.8479 C   0  0  0  0  0  0  0  0  0  0  0  0
    1.9140   36.2964   21.7540 C   0  0  0  0  0  0  0  0  0  0  0  0
    4.6541   33.1151   20.8999 C   0  0  0  0  0  0  0  0  0  0  0  0
    5.4162   32.5043   21.9099 C   0  0  0  0  0  0  0  0  0  0  0  0
    6.2479   31.4712   21.6491 N   0  0  0  0  0  0  0  0  0  0  0  0
    6.3795   31.0094   20.4002 C   0  0  0  0  0  0  0  0  0  0  0  0
    5.6385   31.5701   19.3560 C   0  0  0  0  0  0  0  0  0  0  0  0
    4.7801   32.6473   19.5948 C   0  0  0  0  0  0  0  0  0  0  0  0
  1  2  2  0
  2  3  2  0
  2  4  1  6
  4  5  1  0
  6  5  1  1
  6  7  1  0
  6  8  1  0
  7  8  1  0
  2  9  1  0
  9 10  2  0
 10 11  1  0
  9 12  1  0
 12 13  2  0
 11 14  2  0
 13 14  1  0
 14 15  1  0
 15 16  1  0
 13 17  1  0
 17 18  1  0
 18 19  1  0
 19 20  1  0
 20 21  2  0
 18 22  2  0
 21 22  1  0
 20 23  1  0
 23 24  2  0
 24 25  1  0
 25 26  2  0
 26 27  1  0
 23 28  1  0
 27 28  2  0
 25 29  1  0
 29 30  2  0
 30 31  1  0
 31 32  2  0
 32 33  1  0
 29 34  1  0
 33 34  2  0
M  END
