
     RDKit          3D

 31 34  0  0  0  0  0  0  0  0999 V2000
    1.3569   -8.2416   86.2333 C   0  0  0  0  0  0  0  0  0  0  0  0
    5.1349  -10.1997   87.2349 C   0  0  0  0  0  0  0  0  0  0  0  0
    6.4615  -10.4222   87.5946 C   0  0  0  0  0  0  0  0  0  0  0  0
    3.1050   -8.8756   87.8147 C   0  0  0  0  0  0  0  0  0  0  0  0
    2.6793   -8.6108   86.4993 C   0  0  0  0  0  0  0  0  0  0  0  0
    4.5137   -9.2282   88.0597 C   0  0  0  0  0  0  0  0  0  0  0  0
    5.2222   -8.5591   89.1225 C   0  0  0  0  0  0  0  0  0  0  0  0
    8.4853  -11.1691   87.7035 N   0  0  0  0  0  0  0  0  0  0  0  0
    6.5790   -8.7915   89.4495 C   0  0  0  0  0  0  0  0  0  0  0  0
    7.1940   -9.7637   88.6468 C   0  0  0  0  0  0  0  0  0  0  0  0
   -0.8145   -7.7705   87.0261 F   0  0  0  0  0  0  0  0  0  0  0  0
    0.4508   -8.1320   87.2819 C   0  0  0  0  0  0  0  0  0  0  0  0
    0.8374   -8.3886   88.5923 C   0  0  0  0  0  0  0  0  0  0  0  0
    2.1546   -8.7775   88.8521 C   0  0  0  0  0  0  0  0  0  0  0  0
    8.4478  -10.2434   88.6807 N   0  0  0  0  0  0  0  0  0  0  0  0
    7.3087  -11.3355   87.0203 C   0  0  0  0  0  0  0  0  0  0  0  0
    7.1498  -12.3597   85.9532 C   0  0  0  0  0  0  0  0  0  0  0  0
    7.4037  -11.8167   84.6114 N   0  0  0  0  0  0  0  0  0  0  0  0
    8.7659  -11.2886   84.5375 C   0  0  0  0  0  0  0  0  0  0  0  0
    6.4484  -10.7665   84.2571 C   0  0  0  0  0  0  0  0  0  0  0  0
    2.5060   -8.9828   90.1647 O   0  0  0  0  0  0  0  0  0  0  0  0
    1.4957   -9.7482   90.8374 C   0  0  0  0  0  0  0  0  0  0  0  0
    1.8805   -9.8629   92.3134 C   0  0  0  0  0  0  0  0  0  0  0  0
    2.3460  -11.2362   92.6683 C   0  0  0  0  0  0  0  0  0  0  0  0
    1.5573  -12.3194   93.1471 C   0  0  0  0  0  0  0  0  0  0  0  0
    0.0925  -12.3551   93.3847 C   0  0  0  0  0  0  0  0  0  0  0  0
    2.3017  -13.3966   93.4094 N   0  0  0  0  0  0  0  0  0  0  0  0
    3.5504  -13.0280   93.0838 N   0  0  0  0  0  0  0  0  0  0  0  0
    4.6323  -13.9692   93.2726 C   0  0  0  0  0  0  0  0  0  0  0  0
    3.6388  -11.7357   92.6326 C   0  0  0  0  0  0  0  0  0  0  0  0
    4.9232  -11.1012   92.2386 C   0  0  0  0  0  0  0  0  0  0  0  0
  2  3  4  0
  1  5  4  0
  4  5  4  0
  4  6  1  0
  2  6  4  0
  6  7  4  0
  7  9  4  0
  3 10  4  0
  9 10  4  0
 11 12  1  0
  1 12  4  0
 12 13  4  0
 13 14  4  0
  4 14  4  0
 10 15  4  0
  8 15  4  0
  3 16  4  0
  8 16  4  0
 16 17  1  0
 17 18  1  0
 18 19  1  0
 18 20  1  0
 14 21  1  0
 21 22  1  0
 22 23  1  0
 23 24  1  0
 24 25  4  0
 25 26  1  0
 25 27  4  0
 27 28  4  0
 28 29  1  0
 24 30  4  0
 28 30  4  0
 30 31  1  0
M  END
