
     RDKit          3D

 21 20  0  0  0  0  0  0  0  0999 V2000
   80.6046   72.8700   35.6892 C   0  0  0  0  0  0  0  0  0  0  0  0
   79.8058   72.1653   36.8013 C   0  0  1  0  0  0  0  0  0  0  0  0
   78.4210   72.8307   37.0100 C   0  0  1  0  0  0  0  0  0  0  0  0
   77.2503   72.0648   36.3263 C   0  0  1  0  0  0  0  0  0  0  0  0
   76.0959   71.7472   37.2941 C   0  0  0  0  0  0  0  0  0  0  0  0
   79.6748   70.6858   36.4236 C   0  0  0  0  0  0  0  0  0  0  0  0
   81.9977   72.6181   35.8746 O   0  0  0  0  0  0  0  0  0  0  0  0
   80.5430   72.3384   38.0330 O   0  0  0  0  0  0  0  0  0  0  0  0
   78.1773   72.9114   38.4392 O   0  0  0  0  0  0  0  0  0  0  0  0
   76.7274   72.8388   35.2449 O   0  0  0  0  0  0  0  0  0  0  0  0
   74.9475   71.3253   36.5850 O   0  0  0  0  0  0  0  0  0  0  0  0
   78.6326   70.1189   36.1260 O   0  0  0  0  0  0  0  0  0  0  0  0
   80.8338   69.9995   36.4827 O   0  0  0  0  0  0  0  0  0  0  0  0
   83.0392   73.4759   35.0164 P   0  0  0  0  0  5  0  0  0  0  0  0
   73.6900   72.3075   36.4631 P   0  0  1  0  0  5  0  0  0  0  0  0
   83.0584   74.9405   35.2793 O   0  0  0  0  0  0  0  0  0  0  0  0
   84.4594   72.7856   35.2342 O   0  0  0  0  0  0  0  0  0  0  0  0
   82.7099   73.1356   33.4937 O   0  0  0  0  0  0  0  0  0  0  0  0
   73.9897   73.7322   36.1568 O   0  0  0  0  0  0  0  0  0  0  0  0
   72.7183   71.5898   35.4215 O   0  0  0  0  0  0  0  0  0  0  0  0
   72.9128   72.0891   37.8416 O   0  0  0  0  0  0  0  0  0  0  0  0
  1  2  1  0
  2  3  1  0
  3  4  1  0
  4  5  1  0
  2  6  1  0
  1  7  1  0
  2  8  1  1
  3  9  1  1
  4 10  1  6
  5 11  1  0
  6 12  2  0
  6 13  1  0
  7 14  1  0
 11 15  1  0
 14 16  2  0
 14 17  1  0
 14 18  1  0
 15 19  2  0
 15 20  1  6
 15 21  1  0
M  END
