
     RDKit          3D

 22 23  0  0  0  0  0  0  0  0999 V2000
  -42.0871   18.5516  -64.8592 Cl  0  0  0  0  0  0  0  0  0  0  0  0
  -42.1580   19.4224  -63.3703 C   0  0  0  0  0  0  0  0  0  0  0  0
  -43.0301   20.4882  -63.1578 C   0  0  0  0  0  0  0  0  0  0  0  0
  -43.9986   20.9364  -64.1705 C   0  0  0  0  0  0  0  0  0  0  0  0
  -43.8416   22.2646  -64.3740 O   0  0  0  0  0  0  0  0  0  0  0  0
  -44.9286   22.8720  -65.0732 C   0  0  0  0  0  0  0  0  0  0  0  0
  -44.7438   20.1772  -64.7643 O   0  0  0  0  0  0  0  0  0  0  0  0
  -41.2584   19.0574  -62.3616 C   0  0  0  0  0  0  0  0  0  0  0  0
  -41.2208   19.7313  -61.1273 C   0  0  0  0  0  0  0  0  0  0  0  0
  -42.0675   20.8385  -60.9489 C   0  0  0  0  0  0  0  0  0  0  0  0
  -42.0639   21.8334  -59.4713 S   0  0  0  0  0  6  0  0  0  0  0  0
  -40.9403   22.7342  -59.5453 O   0  0  0  0  0  0  0  0  0  0  0  0
  -43.4831   22.7195  -59.5615 N   0  0  0  0  0  0  0  0  0  0  0  0
  -42.2597   20.9485  -58.3443 O   0  0  0  0  0  0  0  0  0  0  0  0
  -42.9717   21.2100  -61.9598 C   0  0  0  0  0  0  0  0  0  0  0  0
  -39.9967   19.1867  -59.9442 S   0  0  0  0  0  0  0  0  0  0  0  0
  -40.5278   17.4650  -59.5305 C   0  0  0  0  0  0  0  0  0  0  0  0
  -39.6524   16.3901  -60.1767 C   0  0  0  0  0  0  0  0  0  0  0  0
  -39.9271   15.0114  -59.5633 C   0  0  0  0  0  0  0  0  0  0  0  0
  -41.3592   14.8430  -59.0506 C   0  0  0  0  0  0  0  0  0  0  0  0
  -42.3487   15.6920  -59.8372 C   0  0  0  0  0  0  0  0  0  0  0  0
  -42.0210   17.1892  -59.7630 C   0  0  0  0  0  0  0  0  0  0  0  0
  1  2  1  0
  2  3  4  0
  3  4  1  0
  4  5  1  0
  5  6  1  0
  4  7  2  0
  2  8  4  0
  8  9  4  0
  9 10  4  0
 10 11  1  0
 11 12  2  0
 11 13  1  0
 11 14  2  0
 10 15  4  0
  3 15  4  0
  9 16  1  0
 16 17  1  0
 17 18  1  0
 18 19  1  0
 19 20  1  0
 20 21  1  0
 21 22  1  0
 17 22  1  0
M  END
