7KC5_BJZ_C_402
     RDKit          3D

 37 41  0  0  0  0  0  0  0  0999 V2000
   -3.2820  -15.9191   -6.8961 C   0  0  0  0  0  0  0  0  0  0  0  0
   -2.2244  -15.2905   -7.5507 C   0  0  0  0  0  0  0  0  0  0  0  0
   -1.0757  -16.0184   -7.7446 C   0  0  0  0  0  0  0  0  0  0  0  0
   -0.9696  -17.3418   -7.3022 C   0  0  0  0  0  0  0  0  0  0  0  0
   -2.0330  -17.9428   -6.6555 C   0  0  0  0  0  0  0  0  0  0  0  0
   -3.2004  -17.2220   -6.4513 C   0  0  0  0  0  0  0  0  0  0  0  0
   -1.8818  -19.6114   -6.1045 Cl  0  0  0  0  0  0  0  0  0  0  0  0
    0.0748  -15.4955   -8.3979 N   0  0  0  0  0  0  0  0  0  0  0  0
    0.4997  -15.6472   -9.7468 C   0  0  0  0  0  0  0  0  0  0  0  0
    1.7303  -14.9216   -9.9113 N   0  0  0  0  0  0  0  0  0  0  0  0
    2.1794  -14.5097   -8.6289 C   0  0  2  0  0  0  0  0  0  0  0  0
    1.0340  -14.6797   -7.7226 C   0  0  0  0  0  0  0  0  0  0  0  0
    0.9026  -14.1966   -6.5483 O   0  0  0  0  0  0  0  0  0  0  0  0
    2.5565  -13.0286   -8.5474 C   0  0  0  0  0  0  0  0  0  0  0  0
    3.2280  -12.9805   -7.2397 N   0  0  0  0  0  0  0  0  0  0  0  0
    3.7510  -14.3112   -6.9284 C   0  0  0  0  0  0  0  0  0  0  0  0
    3.4611  -15.1190   -8.1506 C   0  0  1  0  0  0  0  0  0  0  0  0
    3.4638  -16.5651   -7.9841 C   0  0  0  0  0  0  0  0  0  0  0  0
    3.2629  -17.4879   -8.9891 C   0  0  0  0  0  0  0  0  0  0  0  0
    3.2778  -18.8410   -8.7659 C   0  0  0  0  0  0  0  0  0  0  0  0
    3.4983  -19.3411   -7.5041 C   0  0  0  0  0  0  0  0  0  0  0  0
    3.7018  -18.4577   -6.4809 C   0  0  0  0  0  0  0  0  0  0  0  0
    3.6857  -17.1040   -6.7107 C   0  0  0  0  0  0  0  0  0  0  0  0
    3.5239  -20.7551   -7.2156 C   0  0  0  0  0  0  0  0  0  0  0  0
    3.5290  -21.8880   -6.9714 N   0  0  0  0  0  0  0  0  0  0  0  0
    3.3312  -11.8099   -6.4377 C   0  0  0  0  0  0  0  0  0  0  0  0
    3.9688  -11.9127   -5.2576 N   0  0  0  0  0  0  0  0  0  0  0  0
    4.1331  -10.8836   -4.4105 C   0  0  0  0  0  0  0  0  0  0  0  0
    3.6002   -9.6525   -4.8073 C   0  0  0  0  0  0  0  0  0  0  0  0
    2.9467   -9.5296   -6.0078 C   0  0  0  0  0  0  0  0  0  0  0  0
    2.8034  -10.6248   -6.8485 C   0  0  0  0  0  0  0  0  0  0  0  0
    3.7556   -8.4958   -3.9117 C   0  0  0  0  0  0  0  0  0  0  0  0
    3.2437   -7.3799   -4.2650 O   0  0  0  0  0  0  0  0  0  0  0  0
    4.4334   -8.6125   -2.7264 O   0  0  0  0  0  0  0  0  0  0  0  0
    2.3421  -14.6939  -11.2073 C   0  0  0  0  0  0  0  0  0  0  0  0
   -0.1282  -16.3156  -10.6201 O   0  0  0  0  0  0  0  0  0  0  0  0
   -4.7822  -15.0363   -6.6179 Cl  0  0  0  0  0  0  0  0  0  0  0  0
  1  2  2  0
  2  3  1  0
  3  4  2  0
  4  5  1  0
  1  6  1  0
  5  6  2  0
  5  7  1  0
  3  8  1  0
  8  9  1  0
  9 10  1  0
 10 11  1  0
  8 12  1  0
 11 12  1  0
 12 13  2  0
 11 14  1  6
 14 15  1  0
 15 16  1  0
 11 17  1  0
 16 17  1  0
 17 18  1  1
 18 19  2  0
 19 20  1  0
 20 21  2  0
 21 22  1  0
 18 23  1  0
 22 23  2  0
 21 24  1  0
 24 25  3  0
 15 26  1  0
 26 27  2  0
 27 28  1  0
 28 29  2  0
 29 30  1  0
 26 31  1  0
 30 31  2  0
 29 32  1  0
 32 33  2  0
 32 34  1  0
 10 35  1  0
  9 36  2  0
  1 37  1  0
M  END
$$$$
