7SNE_9XR_C_201
     RDKit          3D

 45 49  0  0  0  0  0  0  0  0999 V2000
    0.6404   11.5424   19.6331 O   0  0  0  0  0  0  0  0  0  0  0  0
    1.7702   12.1125   19.5009 C   0  0  0  0  0  0  0  0  0  0  0  0
    2.9474   11.5921   20.1345 N   0  0  0  0  0  0  0  0  0  0  0  0
    1.8790   13.3308   18.6837 C   0  0  0  0  0  0  0  0  0  0  0  0
    0.7677   13.8775   18.1200 C   0  0  0  0  0  0  0  0  0  0  0  0
    3.1162   13.9114   18.5025 C   0  0  0  0  0  0  0  0  0  0  0  0
    3.1976   15.0683   17.7299 C   0  0  0  0  0  0  0  0  0  0  0  0
    2.0533   15.6021   17.1690 C   0  0  0  0  0  0  0  0  0  0  0  0
    0.8059   15.0383   17.3372 C   0  0  0  0  0  0  0  0  0  0  0  0
   -0.3357   16.6990   15.8116 C   0  0  1  0  0  0  0  0  0  0  0  0
   -0.2923   16.1635   14.5442 O   0  0  0  0  0  0  0  0  0  0  0  0
   -1.6215   17.5011   15.8965 C   0  0  2  0  0  0  0  0  0  0  0  0
   -2.4705   17.0533   16.9115 O   0  0  0  0  0  0  0  0  0  0  0  0
   -2.2317   17.2958   14.5366 C   0  0  2  0  0  0  0  0  0  0  0  0
   -3.1503   16.2556   14.5379 O   0  0  0  0  0  0  0  0  0  0  0  0
   -1.0400   16.9279   13.6862 C   0  0  1  0  0  0  0  0  0  0  0  0
   -0.2870   18.1485   13.2142 C   0  0  0  0  0  0  0  0  0  0  0  0
   -1.0510   18.9741   12.4264 O   0  0  0  0  0  0  0  0  0  0  0  0
   -0.2387   20.4460   12.1155 P   0  0  1  0  0  0  0  0  0  0  0  0
   -0.4858   21.4986   13.4332 O   0  0  0  0  0  0  0  0  0  0  0  0
    1.2455   20.1757   12.0570 O   0  0  0  0  0  0  0  0  0  0  0  0
   -0.7287   21.1550   10.6799 O   0  0  0  0  0  0  0  0  0  0  0  0
   -2.2260   21.8893   10.8755 P   0  0  2  0  0  0  0  0  0  0  0  0
   -2.0433   23.0638   12.0808 O   0  0  0  0  0  0  0  0  0  0  0  0
   -3.2396   20.8497   11.2851 O   0  0  0  0  0  0  0  0  0  0  0  0
   -2.7453   22.6686    9.4677 O   0  0  0  0  0  0  0  0  0  0  0  0
   -1.8173   23.5606    8.9851 C   0  0  0  0  0  0  0  0  0  0  0  0
   -1.4132   23.2270    7.5647 C   0  0  2  0  0  0  0  0  0  0  0  0
   -2.6112   23.1476    6.6489 C   0  0  1  0  0  0  0  0  0  0  0  0
   -3.0436   24.4032    6.2381 O   0  0  0  0  0  0  0  0  0  0  0  0
   -2.0368   22.3405    5.5092 C   0  0  1  0  0  0  0  0  0  0  0  0
   -1.3872   23.1982    4.6174 O   0  0  0  0  0  0  0  0  0  0  0  0
   -1.0038   21.5089    6.2027 C   0  0  1  0  0  0  0  0  0  0  0  0
   -0.8314   21.9698    7.4780 O   0  0  0  0  0  0  0  0  0  0  0  0
   -1.4324   20.1099    6.2461 N   0  0  0  0  0  0  0  0  0  0  0  0
   -1.3801   19.1851    5.2700 C   0  0  0  0  0  0  0  0  0  0  0  0
   -1.8888   17.9937    5.7383 C   0  0  0  0  0  0  0  0  0  0  0  0
   -2.2503   18.2031    7.0071 N   0  0  0  0  0  0  0  0  0  0  0  0
   -1.9705   19.4994    7.3157 C   0  0  0  0  0  0  0  0  0  0  0  0
   -0.9253   19.2691    3.9843 N   0  0  0  0  0  0  0  0  0  0  0  0
   -0.9935   18.1524    3.2032 C   0  0  0  0  0  0  0  0  0  0  0  0
   -1.4943   16.9903    3.6772 N   0  0  0  0  0  0  0  0  0  0  0  0
   -1.9451   16.8871    4.9328 C   0  0  0  0  0  0  0  0  0  0  0  0
   -2.4811   15.6966    5.4857 N   0  0  0  0  0  0  0  0  0  0  0  0
   -0.3731   15.5813   16.7520 N   0  0  0  0  0  0  0  0  0  0  0  0
  1  2  2  0
  2  3  1  0
  2  4  1  0
  4  5  2  0
  4  6  1  0
  6  7  2  0
  7  8  1  0
  8  9  2  0
  5  9  1  0
 10 11  1  0
 10 12  1  0
 12 13  1  1
 12 14  1  0
 14 15  1  1
 11 16  1  0
 14 16  1  0
 16 17  1  1
 17 18  1  0
 18 19  1  0
 19 20  1  1
 19 21  2  0
 19 22  1  0
 22 23  1  0
 23 24  1  1
 23 25  2  0
 23 26  1  0
 26 27  1  0
 28 27  1  1
 28 29  1  0
 29 30  1  6
 29 31  1  0
 31 32  1  6
 31 33  1  0
 28 34  1  0
 33 34  1  0
 33 35  1  1
 35 36  1  0
 36 37  2  0
 37 38  1  0
 35 39  1  0
 38 39  2  0
 36 40  1  0
 40 41  2  0
 41 42  1  0
 37 43  1  0
 42 43  2  0
 43 44  1  0
 10 45  1  1
  9 45  1  0
M  END
$$$$
