1TOW_CRZ_A_501
     RDKit          3D

 19 21  0  0  0  0  0  0  0  0999 V2000
   21.4040   -0.8679    7.2070 O   0  0  0  0  0  0  0  0  0  0  0  0
   20.4546   -0.1184    6.4748 C   0  0  0  0  0  0  0  0  0  0  0  0
   19.4731    0.2729    7.1104 O   0  0  0  0  0  0  0  0  0  0  0  0
   20.7596    0.0966    5.0577 C   0  0  0  0  0  0  0  0  0  0  0  0
   20.8233    1.4889    4.5748 C   0  0  0  0  0  0  0  0  0  0  0  0
   21.1300    2.5862    5.5014 C   0  0  0  0  0  0  0  0  0  0  0  0
   21.1960    3.9050    4.9771 N   0  0  0  0  0  0  0  0  0  0  0  0
   20.1831    4.7999    4.8725 C   0  0  0  0  0  0  0  0  0  0  0  0
   18.8487    4.7469    5.2586 C   0  0  0  0  0  0  0  0  0  0  0  0
   20.6943    5.9222    4.2561 C   0  0  0  0  0  0  0  0  0  0  0  0
   19.8495    7.0001    4.0282 C   0  0  0  0  0  0  0  0  0  0  0  0
   18.5119    6.9704    4.4053 C   0  0  0  0  0  0  0  0  0  0  0  0
   17.9977    5.8319    5.0293 C   0  0  0  0  0  0  0  0  0  0  0  0
   22.0189    5.7052    3.9876 C   0  0  0  0  0  0  0  0  0  0  0  0
   22.3300    4.4456    4.4383 C   0  0  0  0  0  0  0  0  0  0  0  0
   23.6033    3.9313    4.3101 C   0  0  0  0  0  0  0  0  0  0  0  0
   23.0046    6.4875    3.3866 C   0  0  0  0  0  0  0  0  0  0  0  0
   24.3025    5.9968    3.2416 C   0  0  0  0  0  0  0  0  0  0  0  0
   24.5651    4.7266    3.7102 C   0  0  0  0  0  0  0  0  0  0  0  0
  1  2  1  0
  2  3  2  0
  2  4  1  0
  4  5  1  0
  5  6  1  0
  6  7  1  0
  7  8  1  0
  8  9  2  0
  8 10  1  0
 10 11  2  0
 11 12  1  0
  9 13  1  0
 12 13  2  0
 10 14  1  0
  7 15  1  0
 14 15  2  0
 15 16  1  0
 14 17  1  0
 17 18  2  0
 16 19  2  0
 18 19  1  0
M  END
$$$$
