1TOW_CRZ_A_501
     RDKit          3D

 19 21  0  0  0  0  0  0  0  0999 V2000
    6.3278   -3.6298   -7.9666 O   0  0  0  0  0  0  0  0  0  0  0  0
    6.8231   -4.9338   -7.7353 C   0  0  0  0  0  0  0  0  0  0  0  0
    7.7503   -5.2934   -8.4643 O   0  0  0  0  0  0  0  0  0  0  0  0
    6.1719   -5.6877   -6.6606 C   0  0  0  0  0  0  0  0  0  0  0  0
    7.0324   -6.2633   -5.6098 C   0  0  0  0  0  0  0  0  0  0  0  0
    8.0917   -5.4577   -4.9892 C   0  0  0  0  0  0  0  0  0  0  0  0
    8.8256   -6.0309   -3.9162 N   0  0  0  0  0  0  0  0  0  0  0  0
    9.9627   -6.7645   -3.9972 C   0  0  0  0  0  0  0  0  0  0  0  0
   10.7587   -7.1344   -5.0751 C   0  0  0  0  0  0  0  0  0  0  0  0
   10.2858   -7.1564   -2.7154 C   0  0  0  0  0  0  0  0  0  0  0  0
   11.4232   -7.9286   -2.5217 C   0  0  0  0  0  0  0  0  0  0  0  0
   12.2344   -8.3106   -3.5838 C   0  0  0  0  0  0  0  0  0  0  0  0
   11.9040   -7.9119   -4.8806 C   0  0  0  0  0  0  0  0  0  0  0  0
    9.3420   -6.6586   -1.8579 C   0  0  0  0  0  0  0  0  0  0  0  0
    8.4315   -5.9565   -2.6095 C   0  0  0  0  0  0  0  0  0  0  0  0
    7.3500   -5.3300   -2.0262 C   0  0  0  0  0  0  0  0  0  0  0  0
    9.1775   -6.7451   -0.4759 C   0  0  0  0  0  0  0  0  0  0  0  0
    8.0943   -6.1227    0.1452 C   0  0  0  0  0  0  0  0  0  0  0  0
    7.2079   -5.4298   -0.6524 C   0  0  0  0  0  0  0  0  0  0  0  0
  1  2  1  0
  2  3  2  0
  2  4  1  0
  4  5  1  0
  5  6  1  0
  6  7  1  0
  7  8  1  0
  8  9  2  0
  8 10  1  0
 10 11  2  0
 11 12  1  0
  9 13  1  0
 12 13  2  0
 10 14  1  0
  7 15  1  0
 14 15  2  0
 15 16  1  0
 14 17  1  0
 17 18  2  0
 16 19  2  0
 18 19  1  0
M  END
$$$$
