1TOW_CRZ_A_501
     RDKit          3D

 19 21  0  0  0  0  0  0  0  0999 V2000
   19.7973   -2.0197    2.8353 O   0  0  0  0  0  0  0  0  0  0  0  0
   20.0036   -0.7469    3.4154 C   0  0  0  0  0  0  0  0  0  0  0  0
   20.1296    0.1902    2.6239 O   0  0  0  0  0  0  0  0  0  0  0  0
   20.0403   -0.7060    4.8798 C   0  0  0  0  0  0  0  0  0  0  0  0
   20.7374    0.4280    5.5155 C   0  0  0  0  0  0  0  0  0  0  0  0
   22.0605    0.8514    5.0397 C   0  0  0  0  0  0  0  0  0  0  0  0
   22.7345    1.8734    5.7606 N   0  0  0  0  0  0  0  0  0  0  0  0
   23.7033    1.7177    6.6959 C   0  0  0  0  0  0  0  0  0  0  0  0
   24.3475    0.5903    7.1922 C   0  0  0  0  0  0  0  0  0  0  0  0
   24.0221    2.9748    7.1640 C   0  0  0  0  0  0  0  0  0  0  0  0
   25.0005    3.0931    8.1420 C   0  0  0  0  0  0  0  0  0  0  0  0
   25.6582    1.9804    8.6534 C   0  0  0  0  0  0  0  0  0  0  0  0
   25.3326    0.7089    8.1769 C   0  0  0  0  0  0  0  0  0  0  0  0
   23.2443    3.8921    6.5103 C   0  0  0  0  0  0  0  0  0  0  0  0
   22.4414    3.2026    5.6348 C   0  0  0  0  0  0  0  0  0  0  0  0
   21.5368    3.8555    4.8238 C   0  0  0  0  0  0  0  0  0  0  0  0
   23.1499    5.2812    6.5875 C   0  0  0  0  0  0  0  0  0  0  0  0
   22.2452    5.9719    5.7809 C   0  0  0  0  0  0  0  0  0  0  0  0
   21.4612    5.2350    4.9182 C   0  0  0  0  0  0  0  0  0  0  0  0
  1  2  1  0
  2  3  2  0
  2  4  1  0
  4  5  1  0
  5  6  1  0
  6  7  1  0
  7  8  1  0
  8  9  2  0
  8 10  1  0
 10 11  2  0
 11 12  1  0
  9 13  1  0
 12 13  2  0
 10 14  1  0
  7 15  1  0
 14 15  2  0
 15 16  1  0
 14 17  1  0
 17 18  2  0
 16 19  2  0
 18 19  1  0
M  END
$$$$
