1TOW_CRZ_A_501
     RDKit          3D

 19 21  0  0  0  0  0  0  0  0999 V2000
   17.2399    7.7358    1.9218 O   0  0  0  0  0  0  0  0  0  0  0  0
   17.7472    6.5240    2.4444 C   0  0  0  0  0  0  0  0  0  0  0  0
   17.7011    5.5514    1.6876 O   0  0  0  0  0  0  0  0  0  0  0  0
   18.2618    6.5804    3.8153 C   0  0  0  0  0  0  0  0  0  0  0  0
   18.4668    5.3023    4.5226 C   0  0  0  0  0  0  0  0  0  0  0  0
   17.7091    4.1056    4.1349 C   0  0  0  0  0  0  0  0  0  0  0  0
   18.0209    2.8789    4.7802 N   0  0  0  0  0  0  0  0  0  0  0  0
   19.0970    2.0844    4.5602 C   0  0  0  0  0  0  0  0  0  0  0  0
   20.1993    2.2184    3.7239 C   0  0  0  0  0  0  0  0  0  0  0  0
   18.9570    0.9771    5.3696 C   0  0  0  0  0  0  0  0  0  0  0  0
   19.9396   -0.0031    5.3333 C   0  0  0  0  0  0  0  0  0  0  0  0
   21.0505    0.1089    4.5053 C   0  0  0  0  0  0  0  0  0  0  0  0
   21.1889    1.2318    3.6870 C   0  0  0  0  0  0  0  0  0  0  0  0
   17.7938    1.1025    6.0802 C   0  0  0  0  0  0  0  0  0  0  0  0
   17.2110    2.2902    5.7108 C   0  0  0  0  0  0  0  0  0  0  0  0
   16.0146    2.7037    6.2583 C   0  0  0  0  0  0  0  0  0  0  0  0
   17.1699    0.2915    7.0277 C   0  0  0  0  0  0  0  0  0  0  0  0
   15.9590    0.6808    7.6007 C   0  0  0  0  0  0  0  0  0  0  0  0
   15.4141    1.8818    7.1971 C   0  0  0  0  0  0  0  0  0  0  0  0
  1  2  1  0
  2  3  2  0
  2  4  1  0
  4  5  1  0
  5  6  1  0
  6  7  1  0
  7  8  1  0
  8  9  2  0
  8 10  1  0
 10 11  2  0
 11 12  1  0
  9 13  1  0
 12 13  2  0
 10 14  1  0
  7 15  1  0
 14 15  2  0
 15 16  1  0
 14 17  1  0
 17 18  2  0
 16 19  2  0
 18 19  1  0
M  END
$$$$
