1TOW_CRZ_A_501
     RDKit          3D

 19 21  0  0  0  0  0  0  0  0999 V2000
   16.2697   14.9827  -12.8526 O   0  0  0  0  0  0  0  0  0  0  0  0
   14.9152   14.5810  -12.7967 C   0  0  0  0  0  0  0  0  0  0  0  0
   14.2132   15.1717  -11.9729 O   0  0  0  0  0  0  0  0  0  0  0  0
   14.5213   13.5167  -13.7239 C   0  0  0  0  0  0  0  0  0  0  0  0
   14.9541   12.1417  -13.4111 C   0  0  0  0  0  0  0  0  0  0  0  0
   16.3404   11.7228  -13.6544 C   0  0  0  0  0  0  0  0  0  0  0  0
   16.6833   10.3674  -13.4015 N   0  0  0  0  0  0  0  0  0  0  0  0
   16.3167    9.2786  -14.1210 C   0  0  0  0  0  0  0  0  0  0  0  0
   15.5757    9.1390  -15.2888 C   0  0  0  0  0  0  0  0  0  0  0  0
   16.8316    8.1736  -13.4769 C   0  0  0  0  0  0  0  0  0  0  0  0
   16.5955    6.9170  -14.0180 C   0  0  0  0  0  0  0  0  0  0  0  0
   15.8577    6.7527  -15.1845 C   0  0  0  0  0  0  0  0  0  0  0  0
   15.3377    7.8741  -15.8340 C   0  0  0  0  0  0  0  0  0  0  0  0
   17.5107    8.5955  -12.3658 C   0  0  0  0  0  0  0  0  0  0  0  0
   17.4168    9.9651  -12.3205 C   0  0  0  0  0  0  0  0  0  0  0  0
   18.0056   10.6920  -11.3070 C   0  0  0  0  0  0  0  0  0  0  0  0
   18.2139    7.9175  -11.3706 C   0  0  0  0  0  0  0  0  0  0  0  0
   18.8211    8.6231  -10.3315 C   0  0  0  0  0  0  0  0  0  0  0  0
   18.6985    9.9968  -10.3303 C   0  0  0  0  0  0  0  0  0  0  0  0
  1  2  1  0
  2  3  2  0
  2  4  1  0
  4  5  1  0
  5  6  1  0
  6  7  1  0
  7  8  1  0
  8  9  2  0
  8 10  1  0
 10 11  2  0
 11 12  1  0
  9 13  1  0
 12 13  2  0
 10 14  1  0
  7 15  1  0
 14 15  2  0
 15 16  1  0
 14 17  1  0
 17 18  2  0
 16 19  2  0
 18 19  1  0
M  END
$$$$
