1TOW_CRZ_A_501
     RDKit          3D

 19 21  0  0  0  0  0  0  0  0999 V2000
   13.3084   13.6809   -8.1885 O   0  0  0  0  0  0  0  0  0  0  0  0
   12.5017   12.5803   -8.5583 C   0  0  0  0  0  0  0  0  0  0  0  0
   12.9693   11.4656   -8.3147 O   0  0  0  0  0  0  0  0  0  0  0  0
   11.2161   12.9060   -9.1817 C   0  0  0  0  0  0  0  0  0  0  0  0
   10.2804   11.7955   -9.4411 C   0  0  0  0  0  0  0  0  0  0  0  0
   10.1557   10.6870   -8.4861 C   0  0  0  0  0  0  0  0  0  0  0  0
    9.2207    9.6573   -8.7758 N   0  0  0  0  0  0  0  0  0  0  0  0
    9.4880    8.4059   -9.2232 C   0  0  0  0  0  0  0  0  0  0  0  0
   10.6826    7.7445   -9.4842 C   0  0  0  0  0  0  0  0  0  0  0  0
    8.2770    7.7760   -9.4168 C   0  0  0  0  0  0  0  0  0  0  0  0
    8.2734    6.4665   -9.8781 C   0  0  0  0  0  0  0  0  0  0  0  0
    9.4549    5.7849  -10.1460 C   0  0  0  0  0  0  0  0  0  0  0  0
   10.6795    6.4261   -9.9487 C   0  0  0  0  0  0  0  0  0  0  0  0
    7.2755    8.6486   -9.0858 C   0  0  0  0  0  0  0  0  0  0  0  0
    7.8667    9.8222   -8.6860 C   0  0  0  0  0  0  0  0  0  0  0  0
    7.1131   10.9059   -8.2863 C   0  0  0  0  0  0  0  0  0  0  0  0
    5.8852    8.5415   -9.0909 C   0  0  0  0  0  0  0  0  0  0  0  0
    5.0940    9.6192   -8.6925 C   0  0  0  0  0  0  0  0  0  0  0  0
    5.7345   10.7758   -8.2998 C   0  0  0  0  0  0  0  0  0  0  0  0
  1  2  1  0
  2  3  2  0
  2  4  1  0
  4  5  1  0
  5  6  1  0
  6  7  1  0
  7  8  1  0
  8  9  2  0
  8 10  1  0
 10 11  2  0
 11 12  1  0
  9 13  1  0
 12 13  2  0
 10 14  1  0
  7 15  1  0
 14 15  2  0
 15 16  1  0
 14 17  1  0
 17 18  2  0
 16 19  2  0
 18 19  1  0
M  END
$$$$
