8FAV_4Y5_B_602
     RDKit          3D

 33 36  0  0  0  0  0  0  0  0999 V2000
   -0.6678  -30.0315  -13.8013 C   0  0  0  0  0  0  0  0  0  0  0  0
   -1.3951  -28.8803  -13.4032 C   0  0  0  0  0  0  0  0  0  0  0  0
   -1.1127  -27.6133  -14.0168 C   0  0  0  0  0  0  0  0  0  0  0  0
   -0.0895  -27.5262  -15.0094 C   0  0  0  0  0  0  0  0  0  0  0  0
    0.6666  -28.6872  -15.3573 C   0  0  0  0  0  0  0  0  0  0  0  0
   -0.0623  -26.0956  -15.4244 C   0  0  0  0  0  0  0  0  0  0  0  0
   -2.6297  -25.9030  -13.0667 C   0  0  0  0  0  0  0  0  0  0  0  0
   -3.4955  -21.6255  -12.9604 C   0  0  0  0  0  0  0  0  0  0  0  0
   -2.2139  -22.1208  -12.5839 C   0  0  0  0  0  0  0  0  0  0  0  0
    0.2227  -27.0675  -18.0814 F   0  0  0  0  0  0  0  0  0  0  0  0
    0.9090  -25.9526  -17.7276 C   0  0  0  0  0  0  0  0  0  0  0  0
    1.6832  -25.3247  -18.6448 C   0  0  0  0  0  0  0  0  0  0  0  0
    2.3965  -24.1386  -18.2971 C   0  0  0  0  0  0  0  0  0  0  0  0
    3.2039  -23.4908  -19.2970 C   0  0  0  0  0  0  0  0  0  0  0  0
    3.6751  -22.3818  -19.1027 O   0  0  0  0  0  0  0  0  0  0  0  0
    3.3786  -24.0849  -20.4812 O   0  0  0  0  0  0  0  0  0  0  0  0
    2.3038  -23.6025  -16.9636 C   0  0  0  0  0  0  0  0  0  0  0  0
    1.5162  -24.2439  -16.0232 C   0  0  0  0  0  0  0  0  0  0  0  0
    0.8126  -25.4496  -16.3998 C   0  0  0  0  0  0  0  0  0  0  0  0
    1.6097  -28.6208  -16.3106 F   0  0  0  0  0  0  0  0  0  0  0  0
    0.3781  -29.9206  -14.7424 C   0  0  0  0  0  0  0  0  0  0  0  0
   -1.0057  -25.4845  -14.7782 N   0  0  0  0  0  0  0  0  0  0  0  0
   -1.6389  -26.3195  -13.8911 N   0  0  0  0  0  0  0  0  0  0  0  0
   -3.2025  -26.6810  -12.3161 O   0  0  0  0  0  0  0  0  0  0  0  0
   -2.9698  -24.4380  -13.0237 C   0  0  0  0  0  0  0  0  0  0  0  0
   -1.9472  -23.4958  -12.6031 C   0  0  0  0  0  0  0  0  0  0  0  0
   -0.3829  -24.0792  -12.1406 Cl  0  0  0  0  0  0  0  0  0  0  0  0
   -4.5042  -22.5196  -13.4192 C   0  0  0  0  0  0  0  0  0  0  0  0
   -4.2435  -23.9371  -13.4878 C   0  0  0  0  0  0  0  0  0  0  0  0
   -5.3187  -24.8880  -14.0551 C   0  0  1  0  0  0  0  0  0  0  0  0
   -6.2440  -24.1682  -14.7640 F   0  0  0  0  0  0  0  0  0  0  0  0
   -4.7409  -25.8027  -14.9093 F   0  0  0  0  0  0  0  0  0  0  0  0
   -5.9180  -25.5450  -13.0499 F   0  0  0  0  0  0  0  0  0  0  0  0
  1  2  2  0
  2  3  1  0
  3  4  2  0
  4  5  1  0
  4  6  1  0
  8  9  2  0
 10 11  1  0
 11 12  2  0
 12 13  1  0
 13 14  1  0
 14 15  1  0
 14 16  2  0
 13 17  2  0
 17 18  1  0
  6 19  1  0
 18 19  2  0
 11 19  1  0
  5 20  1  0
  1 21  1  0
  5 21  2  0
  6 22  2  0
  3 23  1  0
  7 23  1  0
 22 23  1  0
  7 24  2  0
  7 25  1  0
 25 26  2  0
  9 26  1  0
 26 27  1  0
  8 28  1  0
 25 29  1  0
 28 29  2  0
 29 30  1  0
 30 31  1  6
 30 32  1  0
 30 33  1  0
M  END
