7V43_C4O_A_501
     RDKit          3D

 15 15  0  0  0  0  0  0  0  0999 V2000
  -41.6417   21.0741  -12.2154 C   0  0  0  0  0  0  0  0  0  0  0  0
  -41.9697   22.5318  -12.1620 C   0  0  0  0  0  0  0  0  0  0  0  0
  -42.9755   23.1300  -12.9674 C   0  0  0  0  0  0  0  0  0  0  0  0
  -43.2979   24.4718  -12.9479 C   0  0  0  0  0  0  0  0  0  0  0  0
  -42.5354   25.2377  -12.1425 C   0  0  0  0  0  0  0  0  0  0  0  0
  -42.9572   26.9410  -12.0995 Cl  0  0  0  0  0  0  0  0  0  0  0  0
  -41.5039   24.7687  -11.3542 C   0  0  0  0  0  0  0  0  0  0  0  0
  -41.2383   23.3892  -11.3883 C   0  0  0  0  0  0  0  0  0  0  0  0
  -42.3257   20.5785  -12.8723 H   0  0  0  0  0  0  0  0  0  0  0  0
  -41.7217   20.6543  -11.2344 H   0  0  0  0  0  0  0  0  0  0  0  0
  -40.6431   20.9462  -12.5777 H   0  0  0  0  0  0  0  0  0  0  0  0
  -43.5015   22.5190  -13.6117 H   0  0  0  0  0  0  0  0  0  0  0  0
  -44.0696   24.8618  -13.5113 H   0  0  0  0  0  0  0  0  0  0  0  0
  -40.9490   25.4067  -10.7625 H   0  0  0  0  0  0  0  0  0  0  0  0
  -40.4689   23.0125  -10.8128 H   0  0  0  0  0  0  0  0  0  0  0  0
  1  2  1  0
  2  3  4  0
  3  4  4  0
  4  5  4  0
  5  6  1  0
  5  7  4  0
  7  8  4  0
  2  8  4  0
  1  9  1  0
  1 10  1  0
  1 11  1  0
  3 12  1  0
  4 13  1  0
  7 14  1  0
  8 15  1  0
M  END
