
     RDKit          3D

 10 10  0  0  0  0  0  0  0  0999 V2000
   31.3249    6.6801   61.1220 C   0  0  0  0  0  0  0  0  0  0  0  0
   29.9490    6.9469   61.1172 C   0  0  0  0  0  0  0  0  0  0  0  0
   29.0638    5.9844   61.6060 C   0  0  0  0  0  0  0  0  0  0  0  0
   29.5538    4.7747   62.0909 C   0  0  0  0  0  0  0  0  0  0  0  0
   30.9199    4.5026   62.0987 C   0  0  0  0  0  0  0  0  0  0  0  0
   31.8144    5.4595   61.6117 C   0  0  0  0  0  0  0  0  0  0  0  0
   28.6480    3.8694   62.5565 O   0  0  0  0  0  0  0  0  0  0  0  0
   32.2633    7.6867   60.6098 N   0  0  0  0  0  4  0  0  0  0  0  0
   32.4621    8.6958   61.3011 O   0  0  0  0  0  1  0  0  0  0  0  0
   32.8019    7.4676   59.5151 O   0  0  0  0  0  0  0  0  0  0  0  0
  1  2  4  0
  2  3  4  0
  3  4  4  0
  4  5  4  0
  1  6  4  0
  5  6  4  0
  4  7  1  0
  1  8  1  0
  8  9  1  0
  8 10  2  0
M  CHG  2   8   1   9  -1
M  END
