7L81_UD4_AAA_301
     RDKit          3D

 38 40  0  0  0  0  0  0  0  0999 V2000
  -18.5675  -16.2135   23.8878 N   0  0  0  0  0  0  0  0  0  0  0  0
  -17.7960  -16.1035   22.7551 C   0  0  0  0  0  0  0  0  0  0  0  0
  -18.4410  -15.5208   21.6699 N   0  0  0  0  0  0  0  0  0  0  0  0
  -19.8559  -15.7722   24.0561 C   0  0  0  0  0  0  0  0  0  0  0  0
  -20.4565  -15.1802   22.8965 C   0  0  0  0  0  0  0  0  0  0  0  0
  -19.7465  -15.0826   21.7610 C   0  0  0  0  0  0  0  0  0  0  0  0
  -23.3434  -10.8471   12.6889 O   0  0  0  0  0  0  0  0  0  0  0  0
  -22.8285  -11.3493   13.6920 C   0  0  0  0  0  0  0  0  0  0  0  0
  -22.9407  -12.8140   13.9981 C   0  0  0  0  0  0  0  0  0  0  0  0
  -22.1350  -10.6163   14.5646 N   0  0  0  0  0  0  0  0  0  0  0  0
  -22.0609   -9.1730   14.5328 C   0  0  2  0  0  0  0  0  0  0  0  0
  -21.4440   -8.6322   13.2482 C   0  0  1  0  0  0  0  0  0  0  0  0
  -22.2142   -9.0330   12.1129 O   0  0  0  0  0  0  0  0  0  0  0  0
  -21.3676   -7.1170   13.3261 C   0  0  2  0  0  0  0  0  0  0  0  0
  -20.7195   -6.5764   12.1304 N   0  0  0  0  0  0  0  0  0  0  0  0
  -20.5964   -6.6948   14.5751 C   0  0  1  0  0  0  0  0  0  0  0  0
  -20.5600   -5.2167   14.8282 C   0  0  0  0  0  0  0  0  0  0  0  0
  -21.2094   -7.2734   15.7342 O   0  0  0  0  0  0  0  0  0  0  0  0
  -21.2896   -8.6813   15.7451 C   0  0  2  0  0  0  0  0  0  0  0  0
  -19.9857   -9.2513   15.7311 O   0  0  0  0  0  0  0  0  0  0  0  0
  -19.3278   -9.9387   16.9978 P   0  0  1  0  0  0  0  0  0  0  0  0
  -17.9597  -10.3347   16.5578 O   0  0  0  0  0  0  0  0  0  0  0  0
  -19.5519   -9.1835   18.2406 O   0  0  0  0  0  0  0  0  0  0  0  0
  -20.2317  -11.2688   17.1300 O   0  0  0  0  0  0  0  0  0  0  0  0
  -20.2899  -12.7095   16.4669 P   0  0  1  0  0  0  0  0  0  0  0  0
  -21.4151  -13.4666   17.1013 O   0  0  0  0  0  0  0  0  0  0  0  0
  -20.2454  -12.5852   14.9834 O   0  0  0  0  0  0  0  0  0  0  0  0
  -18.9314  -13.3428   16.9377 O   0  0  0  0  0  0  0  0  0  0  0  0
  -18.2659  -12.9077   18.1128 C   0  0  0  0  0  0  0  0  0  0  0  0
  -17.4063  -14.0530   18.5863 C   0  0  1  0  0  0  0  0  0  0  0  0
  -17.5225  -14.1280   20.0212 O   0  0  0  0  0  0  0  0  0  0  0  0
  -17.7947  -15.4371   18.0440 C   0  0  1  0  0  0  0  0  0  0  0  0
  -16.6817  -16.1723   17.5548 O   0  0  0  0  0  0  0  0  0  0  0  0
  -18.4777  -16.1116   19.2386 C   0  0  1  0  0  0  0  0  0  0  0  0
  -18.3658  -17.5191   19.2545 O   0  0  0  0  0  0  0  0  0  0  0  0
  -17.7059  -15.4798   20.3953 C   0  0  2  0  0  0  0  0  0  0  0  0
  -16.6538  -16.5186   22.7142 O   0  0  0  0  0  0  0  0  0  0  0  0
  -20.3766  -15.9223   25.1638 O   0  0  0  0  0  0  0  0  0  0  0  0
  1  2  1  0
  2  3  1  0
  1  4  1  0
  4  5  1  0
  3  6  1  0
  5  6  2  0
  7  8  2  0
  8  9  1  0
  8 10  1  0
 11 10  1  6
 11 12  1  0
 12 13  1  6
 12 14  1  0
 14 15  1  6
 14 16  1  0
 16 17  1  1
 16 18  1  0
 11 19  1  0
 18 19  1  0
 19 20  1  6
 20 21  1  0
 21 22  2  0
 21 23  1  1
 21 24  1  0
 24 25  1  0
 25 26  1  6
 25 27  2  0
 25 28  1  0
 28 29  1  0
 30 29  1  6
 30 31  1  0
 30 32  1  0
 32 33  1  1
 32 34  1  0
 34 35  1  6
 36  3  1  1
 31 36  1  0
 34 36  1  0
  2 37  2  0
  4 38  2  0
M  END
