7TS6_KMI_B_803
     RDKit          3D

 34 35  0  0  0  0  0  0  0  0999 V2000
  -15.9869   -1.8683   -1.7837 C   0  0  0  0  0  0  0  0  0  0  0  0
  -14.5238    0.0225   -2.0764 C   0  0  0  0  0  0  0  0  0  0  0  0
  -14.7325   -1.3577   -2.0895 C   0  0  0  0  0  0  0  0  0  0  0  0
  -17.0159   -0.9850   -1.4659 C   0  0  0  0  0  0  0  0  0  0  0  0
  -11.5361    1.4669   -3.7019 C   0  0  0  0  0  0  0  0  0  0  0  0
  -10.5044    1.1305   -2.8135 C   0  0  0  0  0  0  0  0  0  0  0  0
  -10.8375    0.4444   -1.6572 C   0  0  0  0  0  0  0  0  0  0  0  0
  -12.1615    0.1029   -1.4374 C   0  0  0  0  0  0  0  0  0  0  0  0
  -13.1426    0.4792   -2.3419 C   0  0  0  0  0  0  0  0  0  0  0  0
   -9.8076    0.0517   -0.6388 C   0  0  0  0  0  0  0  0  0  0  0  0
  -16.7981    0.3923   -1.4364 C   0  0  0  0  0  0  0  0  0  0  0  0
  -15.5422    0.9066   -1.7435 C   0  0  0  0  0  0  0  0  0  0  0  0
  -17.9304    1.3335   -1.0971 C   0  0  0  0  0  0  0  0  0  0  0  0
  -19.7122   -0.2133   -0.5979 C   0  0  0  0  0  0  0  0  0  0  0  0
  -12.8168    1.1171   -3.4631 N   0  0  0  0  0  0  0  0  0  0  0  0
  -11.2858    2.1375   -4.8470 N   0  0  0  0  0  0  0  0  0  0  0  0
  -19.2148    0.7831   -1.5621 N   0  0  0  0  0  0  0  0  0  0  0  0
  -16.1543   -2.8866   -1.7917 H   0  0  0  0  0  0  0  0  0  0  0  0
  -13.9570   -1.9964   -2.3257 H   0  0  0  0  0  0  0  0  0  0  0  0
  -17.9543   -1.3555   -1.2488 H   0  0  0  0  0  0  0  0  0  0  0  0
   -9.5253    1.3867   -3.0154 H   0  0  0  0  0  0  0  0  0  0  0  0
  -12.4194   -0.4349   -0.5953 H   0  0  0  0  0  0  0  0  0  0  0  0
   -8.8435    0.3886   -0.9583 H   0  0  0  0  0  0  0  0  0  0  0  0
  -10.0480    0.4997    0.3027 H   0  0  0  0  0  0  0  0  0  0  0  0
   -9.7968   -1.0132   -0.5348 H   0  0  0  0  0  0  0  0  0  0  0  0
  -15.3708    1.9240   -1.7242 H   0  0  0  0  0  0  0  0  0  0  0  0
  -17.9691    1.4702   -0.0366 H   0  0  0  0  0  0  0  0  0  0  0  0
  -17.7589    2.2710   -1.5836 H   0  0  0  0  0  0  0  0  0  0  0  0
  -20.6450   -0.6084   -0.9425 H   0  0  0  0  0  0  0  0  0  0  0  0
  -19.0007   -1.0072   -0.5064 H   0  0  0  0  0  0  0  0  0  0  0  0
  -19.8523    0.2518    0.3555 H   0  0  0  0  0  0  0  0  0  0  0  0
  -10.3663    2.4140   -5.0646 H   0  0  0  0  0  0  0  0  0  0  0  0
  -12.0228    2.3499   -5.4642 H   0  0  0  0  0  0  0  0  0  0  0  0
  -19.8947    1.5385   -1.6489 H   0  0  0  0  0  0  0  0  0  0  0  0
  2  3  4  0
  1  3  4  0
  1  4  4  0
  5  6  4  0
  6  7  4  0
  7  8  4  0
  8  9  4  0
  2  9  1  0
  7 10  1  0
  4 11  4  0
  2 12  4  0
 11 12  4  0
 11 13  1  0
  9 15  4  0
  5 15  4  0
  5 16  1  0
 13 17  1  0
 14 17  1  0
  1 18  1  0
  3 19  1  0
  4 20  1  0
  6 21  1  0
  8 22  1  0
 10 23  1  0
 10 24  1  0
 10 25  1  0
 12 26  1  0
 13 27  1  0
 13 28  1  0
 14 29  1  0
 14 30  1  0
 14 31  1  0
 16 32  1  0
 16 33  1  0
 17 34  1  0
M  END
