7XIJ_EJ3_A_1201
     RDKit          3D

 52 55  0  0  0  0  0  0  0  0999 V2000
   26.3886  -13.6351   -1.4119 C   0  0  1  0  0  0  0  0  0  0  0  0
   27.7798  -14.1592   -1.2270 C   0  0  0  0  0  0  0  0  0  0  0  0
   27.9491  -15.1826   -0.5125 O   0  0  0  0  0  0  0  0  0  0  0  0
   28.9090  -13.4783   -1.8117 N   0  0  0  0  0  0  0  0  0  0  0  0
   28.8651  -12.2657   -2.4173 C   0  0  0  0  0  0  0  0  0  0  0  0
   30.2061  -13.8696   -1.8562 C   0  0  0  0  0  0  0  0  0  0  0  0
   30.7791  -15.0519   -1.3709 C   0  0  0  0  0  0  0  0  0  0  0  0
   32.1662  -15.2272   -1.5076 C   0  0  0  0  0  0  0  0  0  0  0  0
   32.9673  -14.2268   -2.1171 C   0  0  0  0  0  0  0  0  0  0  0  0
   34.3570  -14.3597   -2.2527 O   0  0  0  0  0  0  0  0  0  0  0  0
   35.1556  -15.2628   -1.4953 C   0  0  2  0  0  0  0  0  0  0  0  0
   32.3621  -13.0555   -2.6052 C   0  0  0  0  0  0  0  0  0  0  0  0
   30.9775  -12.9155   -2.4805 C   0  0  0  0  0  0  0  0  0  0  0  0
   30.1280  -11.8879   -2.8543 C   0  0  0  0  0  0  0  0  0  0  0  0
   30.4515  -10.6333   -3.5575 C   0  0  0  0  0  0  0  0  0  0  0  0
   29.6637   -9.6533   -3.4598 O   0  0  0  0  0  0  0  0  0  0  0  0
   31.6063  -10.5419   -4.4036 N   0  0  0  0  0  0  0  0  0  0  0  0
   32.0700   -9.3059   -4.9710 C   0  0  0  0  0  0  0  0  0  0  0  0
   32.2837   -8.1689   -4.1695 C   0  0  0  0  0  0  0  0  0  0  0  0
   32.0464   -8.2387   -2.8348 F   0  0  0  0  0  0  0  0  0  0  0  0
   32.3580   -9.2507   -6.3402 C   0  0  0  0  0  0  0  0  0  0  0  0
   32.8109   -8.0615   -6.9323 C   0  0  0  0  0  0  0  0  0  0  0  0
   33.0967   -8.0042   -8.3838 C   0  0  0  0  0  0  0  0  0  0  0  0
   33.6120   -6.8424   -8.9532 O   0  0  0  0  0  0  0  0  0  0  0  0
   32.8764   -9.0050   -9.1185 O   0  0  0  0  0  0  0  0  0  0  0  0
   32.9932   -6.9247   -6.1292 C   0  0  0  0  0  0  0  0  0  0  0  0
   32.7457   -6.9688   -4.7460 C   0  0  0  0  0  0  0  0  0  0  0  0
   32.9769   -5.7575   -3.9211 C   0  0  0  0  0  0  0  0  0  0  0  0
   34.1356   -5.3809   -3.2662 C   0  0  0  0  0  0  0  0  0  0  0  0
   32.0828   -4.7253   -3.6782 C   0  0  0  0  0  0  0  0  0  0  0  0
   32.6767   -3.7882   -2.9141 N   0  0  0  0  0  0  0  0  0  0  0  0
   33.9084   -4.2007   -2.6620 N   0  0  0  0  0  0  0  0  0  0  0  0
   34.8926   -3.4163   -1.9293 C   0  0  2  0  0  0  0  0  0  0  0  0
   26.0280  -13.8761   -2.4336 H   0  0  0  0  0  0  0  0  0  0  0  0
   25.6970  -14.0975   -0.6759 H   0  0  0  0  0  0  0  0  0  0  0  0
   26.3831  -12.5348   -1.2673 H   0  0  0  0  0  0  0  0  0  0  0  0
   27.9658  -11.6752   -2.5398 H   0  0  0  0  0  0  0  0  0  0  0  0
   30.1932  -15.8291   -0.9049 H   0  0  0  0  0  0  0  0  0  0  0  0
   32.6088  -16.1393   -1.1314 H   0  0  0  0  0  0  0  0  0  0  0  0
   35.9321  -15.7216   -2.1432 H   0  0  0  0  0  0  0  0  0  0  0  0
   34.5083  -16.0683   -1.0920 H   0  0  0  0  0  0  0  0  0  0  0  0
   35.6321  -14.7304   -0.6451 H   0  0  0  0  0  0  0  0  0  0  0  0
   32.9702  -12.2799   -3.0488 H   0  0  0  0  0  0  0  0  0  0  0  0
   32.0174  -11.4334   -4.7623 H   0  0  0  0  0  0  0  0  0  0  0  0
   32.2097  -10.1378   -6.9439 H   0  0  0  0  0  0  0  0  0  0  0  0
   33.9399   -6.8336   -9.9117 H   0  0  0  0  0  0  0  0  0  0  0  0
   33.3564   -6.0087   -6.5776 H   0  0  0  0  0  0  0  0  0  0  0  0
   35.0847   -5.9006   -3.2589 H   0  0  0  0  0  0  0  0  0  0  0  0
   31.0629   -4.6575   -4.0323 H   0  0  0  0  0  0  0  0  0  0  0  0
   35.1597   -2.5134   -2.5168 H   0  0  0  0  0  0  0  0  0  0  0  0
   35.8064   -4.0220   -1.7507 H   0  0  0  0  0  0  0  0  0  0  0  0
   34.4758   -3.1036   -0.9487 H   0  0  0  0  0  0  0  0  0  0  0  0
  1  2  1  0
  2  3  2  0
  2  4  1  0
  4  5  1  0
  4  6  1  0
  6  7  2  0
  7  8  1  0
  8  9  2  0
  9 10  1  0
 10 11  1  0
  9 12  1  0
  6 13  1  0
 12 13  2  0
  5 14  2  0
 13 14  1  0
 14 15  1  0
 15 16  2  0
 15 17  1  0
 17 18  1  0
 18 19  2  0
 19 20  1  0
 18 21  1  0
 21 22  2  0
 22 23  1  0
 23 24  1  0
 23 25  2  0
 22 26  1  0
 26 27  2  0
 19 27  1  0
 27 28  1  0
 28 29  2  0
 28 30  1  0
 30 31  2  0
 31 32  1  0
 29 32  1  0
 32 33  1  0
  1 34  1  6
  1 35  1  0
  1 36  1  0
  5 37  1  0
  7 38  1  0
  8 39  1  0
 11 40  1  6
 11 41  1  0
 11 42  1  0
 12 43  1  0
 17 44  1  0
 21 45  1  0
 24 46  1  0
 26 47  1  0
 29 48  1  0
 30 49  1  0
 33 50  1  6
 33 51  1  0
 33 52  1  0
M  END
