7F51_BA7_A_402
     RDKit          3D

 44 48  0  0  0  0  0  0  0  0999 V2000
   -0.6584    6.4409    0.6985 C   0  0  0  0  0  0  0  0  0  0  0  0
   -2.9840    4.9991   15.4815 C   0  0  2  0  0  0  0  0  0  0  0  0
   -1.8133    7.1885   -1.2776 C   0  0  0  0  0  0  0  0  0  0  0  0
   -1.6122    7.2502    0.0985 C   0  0  0  0  0  0  0  0  0  0  0  0
   -1.3587    8.9928    4.7684 C   0  0  2  0  0  0  0  0  0  0  0  0
   -2.9815    1.3852   18.1170 C   0  0  0  0  0  0  0  0  0  0  0  0
   -3.1969    6.3437   16.1089 C   0  0  1  0  0  0  0  0  0  0  0  0
   -0.9791    7.6267    4.3048 C   0  0  1  0  0  0  0  0  0  0  0  0
    0.0862    5.5783   -0.0722 C   0  0  0  0  0  0  0  0  0  0  0  0
   -3.6071    7.1777   14.9085 C   0  0  1  0  0  0  0  0  0  0  0  0
   -1.9454    6.7449    5.0536 C   0  0  1  0  0  0  0  0  0  0  0  0
   -2.0926    3.0999   16.8736 C   0  0  0  0  0  0  0  0  0  0  0  0
   -3.8898    6.0977   13.8799 C   0  0  1  0  0  0  0  0  0  0  0  0
   -3.0774    7.6886    5.3466 C   0  0  1  0  0  0  0  0  0  0  0  0
   -0.8300    2.6451   17.2147 C   0  0  0  0  0  0  0  0  0  0  0  0
   -3.9356    6.6214   12.4798 C   0  0  0  0  0  0  0  0  0  0  0  0
   -3.6088    7.5078    6.7551 C   0  0  0  0  0  0  0  0  0  0  0  0
   -0.6291    1.5396   18.0223 C   0  0  0  0  0  0  0  0  0  0  0  0
   -0.5103    6.5659    2.1409 C   0  0  0  0  0  0  0  0  0  0  0  0
   -0.1081    5.5085   -1.4559 C   0  0  0  0  0  0  0  0  0  0  0  0
   -0.6371    4.4009   15.9361 C   0  0  0  0  0  0  0  0  0  0  0  0
   -1.0713    6.3279   -2.0505 C   0  0  0  0  0  0  0  0  0  0  0  0
   -1.7620    0.9254   18.4616 N   0  0  0  0  0  0  0  0  0  0  0  0
   -3.1689    2.4608   17.3313 N   0  0  0  0  0  0  0  0  0  0  0  0
    0.6677    1.0681   18.3755 N   0  0  0  0  0  0  0  0  0  0  0  0
    0.0466    3.4665   16.6223 N   0  0  0  0  0  0  0  0  0  0  0  0
   -1.9765    4.1894   16.0802 N   0  0  0  0  0  0  0  0  0  0  0  0
   -1.4508    7.2798    9.7896 O   0  0  0  0  0  0  0  0  0  0  0  0
   -5.1878    5.4443    8.4516 O   0  0  0  0  0  0  0  0  0  0  0  0
   -0.6934    9.2524    5.9657 O   0  0  0  0  0  0  0  0  0  0  0  0
   -4.2391    6.3287   17.0424 O   0  0  0  0  0  0  0  0  0  0  0  0
   -2.4784    9.4658   10.7186 O   0  0  0  0  0  0  0  0  0  0  0  0
   -2.9279    4.8600    9.6441 O   0  0  0  0  0  0  0  0  0  0  0  0
   -1.2419    7.4578    2.9135 O   0  0  0  0  0  0  0  0  0  0  0  0
   -4.7383    7.9549   15.1587 O   0  0  0  0  0  0  0  0  0  0  0  0
   -4.0329    7.3555    9.8097 O   0  0  0  0  0  0  0  0  0  0  0  0
   -2.3562    5.6549    4.2803 O   0  0  0  0  0  0  0  0  0  0  0  0
   -2.7939    5.2339   14.1100 O   0  0  0  0  0  0  0  0  0  0  0  0
   -2.7104    8.9705    5.0705 O   0  0  0  0  0  0  0  0  0  0  0  0
   -2.6538    7.0463   12.1407 O   0  0  0  0  0  0  0  0  0  0  0  0
   -3.0698    6.3921    7.3485 O   0  0  0  0  0  0  0  0  0  0  0  0
    0.3237    5.8286    2.7233 O   0  0  0  0  0  0  0  0  0  0  0  0
   -2.6185    7.7992   10.6323 P   0  0  1  0  0  5  0  0  0  0  0  0
   -3.8353    6.0244    8.8212 P   0  0  2  0  0  5  0  0  0  0  0  0
  3  4  2  0
  1  4  1  0
  2  7  1  0
  5  8  1  0
  1  9  2  0
  7 10  1  0
  8 11  1  0
 10 13  1  0
 11 14  1  0
 12 15  1  0
 13 16  1  0
 14 17  1  0
 15 18  2  0
  1 19  1  0
  9 20  1  0
 20 22  2  0
  3 22  1  0
  6 23  2  0
 18 23  1  0
 12 24  2  0
  6 24  1  0
 18 25  1  0
 21 26  2  0
 15 26  1  0
  2 27  1  1
 21 27  1  0
 12 27  1  0
  5 30  1  1
  7 31  1  1
 19 34  1  0
  8 34  1  6
 10 35  1  1
 11 37  1  6
 13 38  1  6
  2 38  1  0
  5 39  1  0
 14 39  1  1
 16 40  1  6
 17 41  1  1
 19 42  2  0
 43 36  1  0
 28 43  2  0
 43 32  1  1
 40 43  1  0
 44 41  1  0
 29 44  2  0
 44 33  1  1
 36 44  1  0
M  END
$$$$
