1TT1_KAI_A_998
     RDKit          3D

 30 30  0  0  0  0  0  0  0  0999 V2000
   -2.9429    0.0858   -3.3356 N   0  0  0  0  0  0  0  0  0  0  0  0
   -3.2161   -1.3101   -2.9583 C   0  0  0  0  0  0  0  0  0  0  0  0
   -2.3487   -4.2096   -4.3637 C   0  0  0  0  0  0  0  0  0  0  0  0
   -1.3245   -2.4175   -5.6834 C   0  0  0  0  0  0  0  0  0  0  0  0
   -1.4995    0.1955   -3.6001 C   0  0  2  0  0  0  0  0  0  0  0  0
   -0.8400   -1.0424   -2.9905 C   0  0  2  0  0  0  0  0  0  0  0  0
    0.5867   -1.3990   -3.4872 C   0  0  0  0  0  0  0  0  0  0  0  0
   -1.9196   -2.1190   -3.0988 C   0  0  2  0  0  0  0  0  0  0  0  0
    1.6837   -1.3013   -2.4662 C   0  0  0  0  0  0  0  0  0  0  0  0
   -1.8799   -2.9514   -4.3822 C   0  0  0  0  0  0  0  0  0  0  0  0
   -0.9147    1.4811   -3.0697 C   0  0  0  0  0  0  0  0  0  0  0  0
   -1.6663    2.4346   -2.7294 O   0  0  0  0  0  0  0  0  0  0  0  0
    1.9231   -2.3607   -1.5963 O   0  0  0  0  0  0  0  0  0  0  0  0
    2.4268   -0.2845   -2.4314 O   0  0  0  0  0  0  0  0  0  0  0  0
    0.4653    1.6125   -2.9501 O   0  0  0  0  0  0  0  0  0  0  0  0
   -3.2244    0.7007   -2.5353 H   0  0  0  0  0  0  0  0  0  0  0  0
   -4.0414   -1.7175   -3.5804 H   0  0  0  0  0  0  0  0  0  0  0  0
   -3.5588   -1.3554   -1.8985 H   0  0  0  0  0  0  0  0  0  0  0  0
   -2.3306   -4.8238   -5.2594 H   0  0  0  0  0  0  0  0  0  0  0  0
   -2.7485   -4.6475   -3.4542 H   0  0  0  0  0  0  0  0  0  0  0  0
   -0.5045   -3.0710   -6.0467 H   0  0  0  0  0  0  0  0  0  0  0  0
   -2.1289   -2.3973   -6.4487 H   0  0  0  0  0  0  0  0  0  0  0  0
   -0.9223   -1.3918   -5.5831 H   0  0  0  0  0  0  0  0  0  0  0  0
   -1.3721    0.1905   -4.7009 H   0  0  0  0  0  0  0  0  0  0  0  0
   -0.7280   -0.8527   -1.8964 H   0  0  0  0  0  0  0  0  0  0  0  0
    0.8346   -0.7595   -4.3622 H   0  0  0  0  0  0  0  0  0  0  0  0
    0.5738   -2.4465   -3.8584 H   0  0  0  0  0  0  0  0  0  0  0  0
   -1.8386   -2.8025   -2.2217 H   0  0  0  0  0  0  0  0  0  0  0  0
    2.6695   -2.3137   -0.9133 H   0  0  0  0  0  0  0  0  0  0  0  0
    0.8768    2.4663   -2.5926 H   0  0  0  0  0  0  0  0  0  0  0  0
  1  2  1  0
  1  5  1  0
  5  6  1  0
  6  7  1  0
  2  8  1  0
  6  8  1  0
  7  9  1  0
  3 10  2  3
  4 10  1  0
  8 10  1  0
  5 11  1  0
 11 12  2  0
  9 13  1  0
  9 14  2  0
 11 15  1  0
  1 16  1  0
  2 17  1  0
  2 18  1  0
  3 19  1  0
  3 20  1  0
  4 21  1  0
  4 22  1  0
  4 23  1  0
  5 24  1  1
  6 25  1  6
  7 26  1  0
  7 27  1  0
  8 28  1  6
 13 29  1  0
 15 30  1  0
M  END
