1OYT_FSN_H_501
     RDKit          3D

 54 58  0  0  0  0  0  0  0  0999 V2000
   -0.6862   -2.1790    1.9616 O   0  0  0  0  0  0  0  0  0  0  0  0
   -1.5338   -1.3984    1.4492 C   0  0  0  0  0  0  0  0  0  0  0  0
   -1.9763   -0.2207    2.0962 N   0  0  0  0  0  0  0  0  0  0  0  0
   -1.2687    0.4789    3.1657 C   0  0  0  0  0  0  0  0  0  0  0  0
   -0.1802    1.3430    2.5864 C   0  0  0  0  0  0  0  0  0  0  0  0
    1.0927    0.8015    2.3355 C   0  0  0  0  0  0  0  0  0  0  0  0
    2.0842    1.5836    1.7353 C   0  0  0  0  0  0  0  0  0  0  0  0
    1.8117    2.9061    1.3744 C   0  0  0  0  0  0  0  0  0  0  0  0
    2.7720    3.6561    0.7786 F   0  0  0  0  0  0  0  0  0  0  0  0
    0.5469    3.4518    1.6179 C   0  0  0  0  0  0  0  0  0  0  0  0
   -0.4478    2.6732    2.2195 C   0  0  0  0  0  0  0  0  0  0  0  0
   -2.9482    0.3453    1.2369 C   0  0  0  0  0  0  0  0  0  0  0  0
   -3.5477    1.4218    1.4972 O   0  0  0  0  0  0  0  0  0  0  0  0
   -3.1824   -0.4583   -0.0069 C   0  0  1  0  0  0  0  0  0  0  0  0
   -2.7173    0.2959   -1.2624 C   0  0  1  0  0  0  0  0  0  0  0  0
   -1.3781   -0.1847   -1.5970 N   0  0  0  0  0  0  0  0  0  0  0  0
   -1.2526   -0.0893   -3.0615 C   0  0  0  0  0  0  0  0  0  0  0  0
   -2.6526    0.0392   -3.6571 C   0  0  0  0  0  0  0  0  0  0  0  0
   -3.6055    0.0349   -2.4774 C   0  0  0  0  0  0  0  0  0  0  0  0
   -1.3186   -1.5758   -1.1109 C   0  0  1  0  0  0  0  0  0  0  0  0
    0.1102   -2.0267   -0.8658 C   0  0  0  0  0  0  0  0  0  0  0  0
    0.4073   -3.3988   -0.8558 C   0  0  0  0  0  0  0  0  0  0  0  0
    1.7000   -3.8429   -0.5628 C   0  0  0  0  0  0  0  0  0  0  0  0
    2.7188   -2.9246   -0.2620 C   0  0  0  0  0  0  0  0  0  0  0  0
    2.4235   -1.5513   -0.2768 C   0  0  0  0  0  0  0  0  0  0  0  0
    1.1315   -1.1065   -0.5684 C   0  0  0  0  0  0  0  0  0  0  0  0
    4.0857   -3.4015    0.0651 C   0  0  0  0  0  0  0  0  0  0  0  0
    4.7800   -2.8264    1.0019 N   0  0  0  0  0  4  0  0  0  0  0  0
    4.6437   -4.5112   -0.6472 N   0  0  0  0  0  0  0  0  0  0  0  0
   -2.2233   -1.6528    0.1351 C   0  0  1  0  0  0  0  0  0  0  0  0
   -1.9879    1.0998    3.7452 H   0  0  0  0  0  0  0  0  0  0  0  0
   -0.8371   -0.2623    3.8756 H   0  0  0  0  0  0  0  0  0  0  0  0
    1.3141   -0.2269    2.5918 H   0  0  0  0  0  0  0  0  0  0  0  0
    3.0598    1.1610    1.5385 H   0  0  0  0  0  0  0  0  0  0  0  0
    0.3345    4.4744    1.3380 H   0  0  0  0  0  0  0  0  0  0  0  0
   -1.4279    3.1036    2.3901 H   0  0  0  0  0  0  0  0  0  0  0  0
   -4.2454   -0.7803   -0.0560 H   0  0  0  0  0  0  0  0  0  0  0  0
   -2.6704    1.3962   -1.0844 H   0  0  0  0  0  0  0  0  0  0  0  0
   -0.7048   -0.9538   -3.5010 H   0  0  0  0  0  0  0  0  0  0  0  0
   -0.6651    0.8258   -3.3004 H   0  0  0  0  0  0  0  0  0  0  0  0
   -2.7429    0.9950   -4.2200 H   0  0  0  0  0  0  0  0  0  0  0  0
   -2.8700   -0.8103   -4.3419 H   0  0  0  0  0  0  0  0  0  0  0  0
   -4.0960   -0.9642   -2.4127 H   0  0  0  0  0  0  0  0  0  0  0  0
   -4.3877    0.8209   -2.5779 H   0  0  0  0  0  0  0  0  0  0  0  0
   -1.7717   -2.2592   -1.8700 H   0  0  0  0  0  0  0  0  0  0  0  0
   -0.3672   -4.1255   -1.0601 H   0  0  0  0  0  0  0  0  0  0  0  0
    1.8943   -4.9076   -0.5455 H   0  0  0  0  0  0  0  0  0  0  0  0
    3.1958   -0.8192   -0.0734 H   0  0  0  0  0  0  0  0  0  0  0  0
    0.9329   -0.0429   -0.5565 H   0  0  0  0  0  0  0  0  0  0  0  0
    5.7426   -3.1582    1.2336 H   0  0  0  0  0  0  0  0  0  0  0  0
    4.3935   -2.0361    1.5655 H   0  0  0  0  0  0  0  0  0  0  0  0
    5.5966   -4.8709   -0.4145 H   0  0  0  0  0  0  0  0  0  0  0  0
    4.1174   -4.9722   -1.4236 H   0  0  0  0  0  0  0  0  0  0  0  0
   -2.7778   -2.6166    0.1767 H   0  0  0  0  0  0  0  0  0  0  0  0
  1  2  2  0
  2  3  1  0
  3  4  1  0
  4  5  1  0
  5  6  2  0
  6  7  1  0
  7  8  2  0
  8  9  1  0
  8 10  1  0
  5 11  1  0
 10 11  2  0
  3 12  1  0
 12 13  2  0
 14 12  1  0
 14 15  1  0
 15 16  1  0
 16 17  1  0
 17 18  1  0
 15 19  1  0
 18 19  1  0
 16 20  1  0
 20 21  1  0
 21 22  2  0
 22 23  1  0
 23 24  2  0
 24 25  1  0
 21 26  1  0
 25 26  2  0
 24 27  1  0
 27 28  2  0
 27 29  1  0
 30  2  1  0
 14 30  1  0
 20 30  1  0
  4 31  1  0
  4 32  1  0
  6 33  1  0
  7 34  1  0
 10 35  1  0
 11 36  1  0
 14 37  1  6
 15 38  1  1
 17 39  1  0
 17 40  1  0
 18 41  1  0
 18 42  1  0
 19 43  1  0
 19 44  1  0
 20 45  1  6
 22 46  1  0
 23 47  1  0
 25 48  1  0
 26 49  1  0
 28 50  1  0
 28 51  1  0
 29 52  1  0
 29 53  1  0
 30 54  1  1
M  CHG  1  28   1
M  END
