@<TRIPOS>MOLECULE
1OYT_FSN_H_501
 54 58 0 0 0
SMALL
GASTEIGER

@<TRIPOS>ATOM
      1 O          -0.6862   -2.1790    1.9616 O.2     1  UNL1       -0.2748
      2 C          -1.5338   -1.3984    1.4492 C.2     1  UNL1        0.2278
      3 N          -1.9763   -0.2207    2.0962 N.am    1  UNL1       -0.2372
      4 C          -1.2687    0.4789    3.1657 C.3     1  UNL1        0.0474
      5 C          -0.1802    1.3430    2.5864 C.ar    1  UNL1       -0.0294
      6 C           1.0927    0.8015    2.3355 C.ar    1  UNL1       -0.0543
      7 C           2.0842    1.5836    1.7353 C.ar    1  UNL1       -0.0261
      8 C           1.8117    2.9061    1.3744 C.ar    1  UNL1        0.1234
      9 F           2.7720    3.6561    0.7786 F       1  UNL1       -0.2055
     10 C           0.5469    3.4518    1.6179 C.ar    1  UNL1       -0.0261
     11 C          -0.4478    2.6732    2.2195 C.ar    1  UNL1       -0.0543
     12 C          -2.9482    0.3453    1.2369 C.2     1  UNL1        0.2275
     13 O          -3.5477    1.4218    1.4972 O.2     1  UNL1       -0.2748
     14 C          -3.1824   -0.4583   -0.0069 C.3     1  UNL1        0.0645
     15 C          -2.7173    0.2959   -1.2624 C.3     1  UNL1        0.0229
     16 N          -1.3781   -0.1847   -1.5970 N.3     1  UNL1       -0.2910
     17 C          -1.2526   -0.0893   -3.0615 C.3     1  UNL1       -0.0002
     18 C          -2.6526    0.0392   -3.6571 C.3     1  UNL1       -0.0387
     19 C          -3.6055    0.0349   -2.4774 C.3     1  UNL1       -0.0354
     20 C          -1.3186   -1.5758   -1.1109 C.3     1  UNL1        0.0477
     21 C           0.1102   -2.0267   -0.8658 C.ar    1  UNL1       -0.0295
     22 C           0.4073   -3.3988   -0.8558 C.ar    1  UNL1       -0.0562
     23 C           1.7000   -3.8429   -0.5628 C.ar    1  UNL1       -0.0467
     24 C           2.7188   -2.9246   -0.2620 C.ar    1  UNL1        0.0608
     25 C           2.4235   -1.5513   -0.2768 C.ar    1  UNL1       -0.0467
     26 C           1.1315   -1.1065   -0.5684 C.ar    1  UNL1       -0.0562
     27 C           4.0857   -3.4015    0.0651 C.2     1  UNL1        0.2662
     28 N           4.7800   -2.8264    1.0019 N.2     1  UNL1       -0.2884
     29 N           4.6437   -4.5112   -0.6472 N.pl3   1  UNL1       -0.2497
     30 C          -2.2233   -1.6528    0.1351 C.3     1  UNL1        0.0683
     31 H          -1.9879    1.0998    3.7452 H       1  UNL1        0.0519
     32 H          -0.8371   -0.2623    3.8756 H       1  UNL1        0.0519
     33 H           1.3141   -0.2269    2.5918 H       1  UNL1        0.0622
     34 H           3.0598    1.1610    1.5385 H       1  UNL1        0.0646
     35 H           0.3345    4.4744    1.3380 H       1  UNL1        0.0646
     36 H          -1.4279    3.1036    2.3901 H       1  UNL1        0.0622
     37 H          -4.2454   -0.7803   -0.0560 H       1  UNL1        0.0418
     38 H          -2.6704    1.3962   -1.0844 H       1  UNL1        0.0470
     39 H          -0.7048   -0.9538   -3.5010 H       1  UNL1        0.0427
     40 H          -0.6651    0.8258   -3.3004 H       1  UNL1        0.0427
     41 H          -2.7429    0.9950   -4.2200 H       1  UNL1        0.0278
     42 H          -2.8700   -0.8103   -4.3419 H       1  UNL1        0.0278
     43 H          -4.0960   -0.9642   -2.4127 H       1  UNL1        0.0281
     44 H          -4.3877    0.8209   -2.5779 H       1  UNL1        0.0281
     45 H          -1.7717   -2.2592   -1.8700 H       1  UNL1        0.0520
     46 H          -0.3672   -4.1255   -1.0601 H       1  UNL1        0.0621
     47 H           1.8943   -4.9076   -0.5455 H       1  UNL1        0.0626
     48 H           3.1958   -0.8192   -0.0734 H       1  UNL1        0.0626
     49 H           0.9329   -0.0429   -0.5565 H       1  UNL1        0.0621
     50 H           5.7426   -3.1582    1.2336 H       1  UNL1        0.3009
     51 H           4.3935   -2.0361    1.5655 H       1  UNL1        0.3009
     52 H           5.5966   -4.8709   -0.4145 H       1  UNL1        0.2883
     53 H           4.1174   -4.9722   -1.4236 H       1  UNL1        0.2883
     54 H          -2.7778   -2.6166    0.1767 H       1  UNL1        0.0421
@<TRIPOS>UNITY_ATOM_ATTR
28 1
charge 1
@<TRIPOS>BOND
     1     1     2    2
     2     2     3   am
     3     3     4    1
     4     4     5    1
     5     5     6   ar
     6     6     7   ar
     7     7     8   ar
     8     8     9    1
     9     8    10   ar
    10     5    11   ar
    11    10    11   ar
    12     3    12   am
    13    12    13    2
    14    14    12    1
    15    14    15    1
    16    15    16    1
    17    16    17    1
    18    17    18    1
    19    15    19    1
    20    18    19    1
    21    16    20    1
    22    20    21    1
    23    21    22   ar
    24    22    23   ar
    25    23    24   ar
    26    24    25   ar
    27    21    26   ar
    28    25    26   ar
    29    24    27    1
    30    27    28    2
    31    27    29    1
    32    30     2    1
    33    14    30    1
    34    20    30    1
    35     4    31    1
    36     4    32    1
    37     6    33    1
    38     7    34    1
    39    10    35    1
    40    11    36    1
    41    14    37    1
    42    15    38    1
    43    17    39    1
    44    17    40    1
    45    18    41    1
    46    18    42    1
    47    19    43    1
    48    19    44    1
    49    20    45    1
    50    22    46    1
    51    23    47    1
    52    25    48    1
    53    26    49    1
    54    28    50    1
    55    28    51    1
    56    29    52    1
    57    29    53    1
    58    30    54    1
