@<TRIPOS>MOLECULE
1V48_HA1_A_290
 36 37 0 0 0
SMALL
GASTEIGER

@<TRIPOS>ATOM
      1 N          72.3650   46.4880   50.0860 N.ar    1  UNL1       -0.3148
      2 C          71.1030   46.9890   50.3430 C.ar    1  UNL1        0.0984
      3 N          71.0510   48.2700   50.0890 N.ar    1  UNL1       -0.2286
      4 C          72.2950   48.6540   49.6530 C.ar    1  UNL1        0.1720
      5 C          72.8050   49.9450   49.2380 C.ar    1  UNL1        0.2803
      6 O          72.1750   51.0160   49.1910 O.2     1  UNL1       -0.2654
      7 N          74.1800   49.9120   48.8540 N.ar    1  UNL1       -0.2934
      8 C          74.9780   48.7450   48.8730 C.ar    1  UNL1        0.1950
      9 N          76.2840   48.8480   48.4800 N.pl3   1  UNL1       -0.3289
     10 N          74.4860   47.5150   49.2700 N.ar    1  UNL1       -0.1964
     11 C          73.1450   47.5500   49.6440 C.ar    1  UNL1        0.1691
     12 C          72.6500   45.1320   50.2120 C.3     1  UNL1        0.0261
     13 C          73.4070   44.8400   51.5340 C.3     1  UNL1       -0.0347
     14 C          74.3640   43.6420   51.3350 C.3     1  UNL1       -0.0454
     15 C          73.6010   42.3740   50.8350 C.3     1  UNL1        0.0227
     16 C          74.4710   41.0990   50.9880 C.3     1  UNL1        0.3461
     17 F          74.4940   40.7400   52.2830 F       1  UNL1       -0.1921
     18 F          75.7270   41.3680   50.5970 F       1  UNL1       -0.1921
     19 P          73.9180   39.9670   50.1360 P.3     1  UNL1        0.3959
     20 O          72.4530   39.8050   50.3640 O.3     1  UNL1       -0.3201
     21 O          74.1700   40.2640   48.6970 O.2     1  UNL1       -0.2526
     22 O          74.6210   38.6860   50.4980 O.3     1  UNL1       -0.3201
     23 H          70.3090   46.4276   50.6887 H       1  UNL1        0.1029
     24 H          74.5977   50.7529   48.5580 H       1  UNL1        0.1716
     25 H          76.6452   49.7185   48.1953 H       1  UNL1        0.1451
     26 H          76.8629   48.0517   48.4818 H       1  UNL1        0.1451
     27 H          73.2574   44.8245   49.3865 H       1  UNL1        0.0493
     28 H          71.7271   44.5907   50.2226 H       1  UNL1        0.0493
     29 H          72.7011   44.6069   52.3036 H       1  UNL1        0.0282
     30 H          73.9742   45.7028   51.8147 H       1  UNL1        0.0282
     31 H          74.8376   43.4171   52.2678 H       1  UNL1        0.0268
     32 H          75.0878   43.9111   50.5943 H       1  UNL1        0.0268
     33 H          73.3489   42.5027   49.8031 H       1  UNL1        0.0329
     34 H          72.7179   42.2546   51.4272 H       1  UNL1        0.0329
     35 H          71.9966   40.6288   50.1317 H       1  UNL1        0.2199
     36 H          74.4631   38.4837   51.4334 H       1  UNL1        0.2199
@<TRIPOS>BOND
     1     1     2   ar
     2     2     3   ar
     3     3     4   ar
     4     4     5   ar
     5     5     6    2
     6     5     7   ar
     7     7     8   ar
     8     8     9    1
     9     8    10   ar
    10     1    11   ar
    11     4    11   ar
    12    10    11   ar
    13     1    12    1
    14    12    13    1
    15    13    14    1
    16    14    15    1
    17    15    16    1
    18    16    17    1
    19    16    18    1
    20    16    19    1
    21    19    20    1
    22    19    21    2
    23    19    22    1
    24     2    23    1
    25     7    24    1
    26     9    25    1
    27     9    26    1
    28    12    27    1
    29    12    28    1
    30    13    29    1
    31    13    30    1
    32    14    31    1
    33    14    32    1
    34    15    33    1
    35    15    34    1
    36    20    35    1
    37    22    36    1
