1V48_HA1_A_290
     RDKit          3D

 36 37  0  0  0  0  0  0  0  0999 V2000
   72.7928   46.6395   49.4160 N   0  0  0  0  0  4  0  0  0  0  0  0
   73.0595   45.2842   49.3757 C   0  0  0  0  0  0  0  0  0  0  0  0
   74.3468   45.0654   49.3201 N   0  0  0  0  0  0  0  0  0  0  0  0
   74.9725   46.2875   49.3207 C   0  0  0  0  0  0  0  0  0  0  0  0
   76.3764   46.6416   49.2708 C   0  0  0  0  0  0  0  0  0  0  0  0
   77.3417   45.8595   49.2183 O   0  0  0  0  0  0  0  0  0  0  0  0
   76.6042   48.0512   49.2893 N   0  0  0  0  0  4  0  0  0  0  0  0
   75.5738   49.0175   49.3483 C   0  0  0  0  0  0  0  0  0  0  0  0
   75.9262   50.3390   49.3602 N   0  0  0  0  0  0  0  0  0  0  0  0
   74.2350   48.6740   49.3959 N   0  0  0  0  0  0  0  0  0  0  0  0
   74.0157   47.2988   49.3777 C   0  0  0  0  0  0  0  0  0  0  0  0
   71.4951   47.1229   49.5504 C   0  0  0  0  0  0  0  0  0  0  0  0
   71.2755   48.3861   48.6774 C   0  0  0  0  0  0  0  0  0  0  0  0
   72.3880   49.4205   48.9652 C   0  0  0  0  0  0  0  0  0  0  0  0
   73.7413   49.0081   48.3029 C   0  0  0  0  0  0  0  0  0  0  0  0
   74.8861   48.9607   49.3484 C   0  0  2  0  0  0  0  0  0  0  0  0
   74.9581   47.7199   49.8597 F   0  0  0  0  0  0  0  0  0  0  0  0
   74.6141   49.8183   50.3450 F   0  0  0  0  0  0  0  0  0  0  0  0
   76.2116   49.3465   48.7100 P   0  0  1  0  0  5  0  0  0  0  0  0
   76.1399   49.2101   47.2266 O   0  0  0  0  0  0  0  0  0  0  0  0
   76.5393   50.7563   49.0670 O   0  0  0  0  0  0  0  0  0  0  0  0
   77.2963   48.4467   49.2391 O   0  0  0  0  0  0  0  0  0  0  0  0
   72.3396   44.5448   49.3879 H   0  0  0  0  0  0  0  0  0  0  0  0
   77.5353   48.3696   49.2591 H   0  0  0  0  0  0  0  0  0  0  0  0
   76.8761   50.5955   49.3267 H   0  0  0  0  0  0  0  0  0  0  0  0
   75.2299   51.0338   49.4022 H   0  0  0  0  0  0  0  0  0  0  0  0
   71.3196   47.3723   50.5760 H   0  0  0  0  0  0  0  0  0  0  0  0
   70.8147   46.3635   49.2259 H   0  0  0  0  0  0  0  0  0  0  0  0
   70.3228   48.8156   48.9073 H   0  0  0  0  0  0  0  0  0  0  0  0
   71.3068   48.1115   47.6437 H   0  0  0  0  0  0  0  0  0  0  0  0
   72.5277   49.4951   50.0235 H   0  0  0  0  0  0  0  0  0  0  0  0
   72.0860   50.3605   48.5527 H   0  0  0  0  0  0  0  0  0  0  0  0
   73.9903   49.7210   47.5447 H   0  0  0  0  0  0  0  0  0  0  0  0
   73.6278   48.0317   47.8802 H   0  0  0  0  0  0  0  0  0  0  0  0
   75.4418   49.7887   46.8820 H   0  0  0  0  0  0  0  0  0  0  0  0
   77.0922   47.5261   49.0119 H   0  0  0  0  0  0  0  0  0  0  0  0
  1  2  2  0
  2  3  1  0
  3  4  2  0
  4  5  1  0
  5  6  2  0
  5  7  1  0
  7  8  2  0
  8  9  1  0
  8 10  1  0
  1 11  1  0
  4 11  1  0
 10 11  2  0
  1 12  1  0
 12 13  1  0
 13 14  1  0
 14 15  1  0
 15 16  1  0
 16 17  1  1
 16 18  1  0
 16 19  1  0
 19 20  1  6
 19 21  2  0
 19 22  1  0
  2 23  1  0
  7 24  1  0
  9 25  1  0
  9 26  1  0
 12 27  1  0
 12 28  1  0
 13 29  1  0
 13 30  1  0
 14 31  1  0
 14 32  1  0
 15 33  1  0
 15 34  1  0
 20 35  1  0
 22 36  1  0
M  CHG  2   1   1   7   1
M  END
