@<TRIPOS>MOLECULE
1V48_HA1_A_290
 36 37 0 0 0
SMALL
GASTEIGER

@<TRIPOS>ATOM
      1 N           0.2939    1.4385   -0.5674 N.ar    1  UNL1       -0.3148
      2 C          -0.5621    2.3121    0.0225 C.ar    1  UNL1        0.0984
      3 N          -0.3219    2.4882    1.3518 N.ar    1  UNL1       -0.2286
      4 C           0.7289    1.6752    1.5722 C.ar    1  UNL1        0.1720
      5 C           1.4021    1.4056    2.7544 C.ar    1  UNL1        0.2803
      6 O           1.0794    1.9722    3.8324 O.2     1  UNL1       -0.2654
      7 N           2.4271    0.4999    2.7161 N.ar    1  UNL1       -0.2934
      8 C           2.7756   -0.1303    1.5430 C.ar    1  UNL1        0.1950
      9 N           3.8428   -1.0780    1.5274 N.pl3   1  UNL1       -0.3289
     10 N           2.0996    0.1435    0.3850 N.ar    1  UNL1       -0.1964
     11 C           1.0933    1.0487    0.4324 C.ar    1  UNL1        0.1691
     12 C           0.2629    0.9555   -1.9474 C.3     1  UNL1        0.0261
     13 C          -0.8261   -0.1087   -2.1308 C.3     1  UNL1       -0.0347
     14 C          -0.5157   -1.3898   -1.3404 C.3     1  UNL1       -0.0454
     15 C          -1.4752   -2.5547   -1.6527 C.3     1  UNL1        0.0227
     16 C          -2.9600   -2.3412   -1.2900 C.3     1  UNL1        0.3461
     17 F          -3.6391   -3.5150   -1.5627 F       1  UNL1       -0.1921
     18 F          -3.5139   -1.3446   -2.0718 F       1  UNL1       -0.1921
     19 P          -3.2221   -1.9422    0.4754 P.3     1  UNL1        0.3959
     20 O          -2.3885   -3.0474    1.4506 O.3     1  UNL1       -0.3201
     21 O          -2.7504   -0.5367    0.7765 O.2     1  UNL1       -0.2526
     22 O          -4.8749   -2.0511    0.8219 O.3     1  UNL1       -0.3201
     23 H          -1.3679    2.8073   -0.5038 H       1  UNL1        0.1029
     24 H           2.9493    0.2808    3.5947 H       1  UNL1        0.1716
     25 H           4.1068   -1.5594    0.6393 H       1  UNL1        0.1451
     26 H           4.3702   -1.3020    2.4002 H       1  UNL1        0.1451
     27 H           1.2555    0.5441   -2.2339 H       1  UNL1        0.0493
     28 H           0.0500    1.8098   -2.6258 H       1  UNL1        0.0493
     29 H          -0.9033   -0.3528   -3.2125 H       1  UNL1        0.0282
     30 H          -1.7935    0.3223   -1.7995 H       1  UNL1        0.0282
     31 H           0.5112   -1.7266   -1.6029 H       1  UNL1        0.0268
     32 H          -0.5107   -1.1800   -0.2526 H       1  UNL1        0.0268
     33 H          -1.1088   -3.4539   -1.1111 H       1  UNL1        0.0329
     34 H          -1.4078   -2.7900   -2.7373 H       1  UNL1        0.0329
     35 H          -1.4400   -2.7662    1.4096 H       1  UNL1        0.2199
     36 H          -5.3038   -1.3831    0.2294 H       1  UNL1        0.2199
@<TRIPOS>BOND
     1     1     2   ar
     2     2     3   ar
     3     3     4   ar
     4     4     5   ar
     5     5     6    2
     6     5     7   ar
     7     7     8   ar
     8     8     9    1
     9     8    10   ar
    10     1    11   ar
    11     4    11   ar
    12    10    11   ar
    13     1    12    1
    14    12    13    1
    15    13    14    1
    16    14    15    1
    17    15    16    1
    18    16    17    1
    19    16    18    1
    20    16    19    1
    21    19    20    1
    22    19    21    2
    23    19    22    1
    24     2    23    1
    25     7    24    1
    26     9    25    1
    27     9    26    1
    28    12    27    1
    29    12    28    1
    30    13    29    1
    31    13    30    1
    32    14    31    1
    33    14    32    1
    34    15    33    1
    35    15    34    1
    36    20    35    1
    37    22    36    1
