7Q27_8KC_A_707
     RDKit          3D

 68 70  0  0  0  0  0  0  0  0999 V2000
    5.9547   -2.2557   -2.2178 C   0  0  0  0  0  0  0  0  0  0  0  0
    4.9041   -1.9388   -3.2815 C   0  0  0  0  0  0  0  0  0  0  0  0
    3.5071   -2.4572   -2.9078 C   0  0  0  0  0  0  0  0  0  0  0  0
    2.6196   -1.3656   -2.2827 C   0  0  0  0  0  0  0  0  0  0  0  0
    2.0956   -0.3613   -3.3346 C   0  0  2  0  0  0  0  0  0  0  0  0
   -0.0527    1.6529   -4.2208 C   0  0  0  0  0  0  0  0  0  0  0  0
    1.2498    1.2235   -3.9600 C   0  0  0  0  0  0  0  0  0  0  0  0
    2.1308    2.1329   -3.3474 C   0  0  0  0  0  0  0  0  0  0  0  0
    1.6961    3.4335   -3.0093 C   0  0  0  0  0  0  0  0  0  0  0  0
    0.3757    3.8359   -3.2786 C   0  0  0  0  0  0  0  0  0  0  0  0
    0.6802    0.0469   -3.0029 C   0  0  0  0  0  0  0  0  0  0  0  0
    0.9667    1.1931   -5.2967 C   0  0  0  0  0  0  0  0  0  0  0  0
    2.2602    2.0208   -5.1700 C   0  0  0  0  0  0  0  0  0  0  0  0
    3.4611    1.1711   -4.8355 C   0  0  0  0  0  0  0  0  0  0  0  0
    4.2511    1.4660   -3.7111 C   0  0  0  0  0  0  0  0  0  0  0  0
    5.3483    0.6613   -3.3898 C   0  0  0  0  0  0  0  0  0  0  0  0
   -2.0194   -2.4010   -4.1193 C   0  0  0  0  0  0  0  0  0  0  0  0
   -0.8452   -1.4854   -4.3401 C   0  0  1  0  0  0  0  0  0  0  0  0
   -1.1737   -0.3843   -5.3722 C   0  0  0  0  0  0  0  0  0  0  0  0
   -1.1297    1.0103   -4.8032 C   0  0  0  0  0  0  0  0  0  0  0  0
   -2.1708    1.9352   -4.7853 C   0  0  0  0  0  0  0  0  0  0  0  0
   -0.4753    2.9146   -3.8879 C   0  0  0  0  0  0  0  0  0  0  0  0
    1.2038   -0.2989   -5.6410 C   0  0  2  0  0  0  0  0  0  0  0  0
   -0.1134   -1.0184   -5.5942 C   0  0  0  0  0  0  0  0  0  0  0  0
    5.6683   -0.4388   -4.1896 C   0  0  0  0  0  0  0  0  0  0  0  0
    4.8931   -0.7343   -5.3143 C   0  0  0  0  0  0  0  0  0  0  0  0
    3.7940    0.0669   -5.6383 C   0  0  0  0  0  0  0  0  0  0  0  0
   -1.7628    3.0968   -4.2262 N   0  0  0  0  0  4  0  0  0  0  0  0
   -0.3843   -0.9143   -3.0691 N   0  0  0  0  0  0  0  0  0  0  0  0
    2.1296   -0.9543   -4.6878 N   0  0  0  0  0  0  0  0  0  0  0  0
   -3.0100   -2.0190   -3.4390 O   0  0  0  0  0  0  0  0  0  0  0  0
   -2.0292   -3.6615   -4.7084 O   0  0  0  0  0  0  0  0  0  0  0  0
   -0.5502   -1.4658   -4.4996 O   0  0  0  0  0  0  0  0  0  0  0  0
   -0.8356   -1.2276   -6.7657 O   0  0  0  0  0  0  0  0  0  0  0  0
    0.4422    1.2360   -2.6551 O   0  0  0  0  0  0  0  0  0  0  0  0
    5.6281   -1.8816   -1.2247 H   0  0  0  0  0  0  0  0  0  0  0  0
    6.9112   -1.7591   -2.4853 H   0  0  0  0  0  0  0  0  0  0  0  0
    6.1384   -3.3484   -2.1594 H   0  0  0  0  0  0  0  0  0  0  0  0
    5.2223   -2.3639   -4.2583 H   0  0  0  0  0  0  0  0  0  0  0  0
    4.8492   -0.8348   -3.3995 H   0  0  0  0  0  0  0  0  0  0  0  0
    3.0172   -2.8813   -3.8108 H   0  0  0  0  0  0  0  0  0  0  0  0
    3.6330   -3.2820   -2.1730 H   0  0  0  0  0  0  0  0  0  0  0  0
    1.7590   -1.8647   -1.7911 H   0  0  0  0  0  0  0  0  0  0  0  0
    3.1845   -0.8176   -1.4993 H   0  0  0  0  0  0  0  0  0  0  0  0
    2.7321    0.5515   -3.3106 H   0  0  0  0  0  0  0  0  0  0  0  0
    1.5779    0.2252   -4.2176 H   0  0  0  0  0  0  0  0  0  0  0  0
    3.1484    1.8332   -3.1327 H   0  0  0  0  0  0  0  0  0  0  0  0
    2.3828    4.1247   -2.5385 H   0  0  0  0  0  0  0  0  0  0  0  0
    0.0332    4.8292   -3.0201 H   0  0  0  0  0  0  0  0  0  0  0  0
    0.4023    1.2661   -4.3409 H   0  0  0  0  0  0  0  0  0  0  0  0
    0.3289    1.6574   -6.0815 H   0  0  0  0  0  0  0  0  0  0  0  0
    2.1298    2.8287   -4.4195 H   0  0  0  0  0  0  0  0  0  0  0  0
    2.4483    2.5285   -6.1408 H   0  0  0  0  0  0  0  0  0  0  0  0
    4.0201    2.3183   -3.0846 H   0  0  0  0  0  0  0  0  0  0  0  0
    5.9514    0.8912   -2.5209 H   0  0  0  0  0  0  0  0  0  0  0  0
   -0.0145   -2.0901   -4.7664 H   0  0  0  0  0  0  0  0  0  0  0  0
   -0.4527   -0.4525   -6.2155 H   0  0  0  0  0  0  0  0  0  0  0  0
   -2.1823   -0.5723   -5.7998 H   0  0  0  0  0  0  0  0  0  0  0  0
   -3.1723    1.7672   -5.1584 H   0  0  0  0  0  0  0  0  0  0  0  0
    1.5836   -0.3558   -6.6864 H   0  0  0  0  0  0  0  0  0  0  0  0
    6.5182   -1.0604   -3.9394 H   0  0  0  0  0  0  0  0  0  0  0  0
    5.1434   -1.5849   -5.9348 H   0  0  0  0  0  0  0  0  0  0  0  0
    3.2013   -0.1731   -6.5122 H   0  0  0  0  0  0  0  0  0  0  0  0
   -2.3359    3.9584   -4.0873 H   0  0  0  0  0  0  0  0  0  0  0  0
   -0.8534   -1.1845   -2.1767 H   0  0  0  0  0  0  0  0  0  0  0  0
    1.9202   -1.9769   -4.6142 H   0  0  0  0  0  0  0  0  0  0  0  0
   -2.8195   -4.2837   -4.5897 H   0  0  0  0  0  0  0  0  0  0  0  0
   -1.7203   -1.7205   -6.7494 H   0  0  0  0  0  0  0  0  0  0  0  0
  1  2  1  0
  2  3  1  0
  3  4  1  0
  5  4  1  0
  6  7  4  0
  7  8  4  0
  8  9  4  0
  9 10  4  0
  5 11  1  0
 12 13  1  0
 13 14  1  0
 14 15  4  0
 15 16  4  0
 17 18  1  0
 18 19  1  0
  6 20  4  0
 19 20  1  0
 20 21  4  0
 10 22  4  0
  6 22  4  0
 23 12  1  0
 23 24  1  0
 16 25  4  0
 25 26  4  0
 26 27  4  0
 14 27  4  0
 22 28  4  0
 21 28  4  0
 11 29  1  0
 18 29  1  0
  5 30  1  0
 23 30  1  0
 17 31  2  0
 17 32  1  0
 24 33  2  0
 24 34  1  0
 11 35  2  0
  1 36  1  0
  1 37  1  0
  1 38  1  0
  2 39  1  0
  2 40  1  0
  3 41  1  0
  3 42  1  0
  4 43  1  0
  4 44  1  0
  5 45  1  1
  7 46  1  0
  8 47  1  0
  9 48  1  0
 10 49  1  0
 12 50  1  0
 12 51  1  0
 13 52  1  0
 13 53  1  0
 15 54  1  0
 16 55  1  0
 18 56  1  1
 19 57  1  0
 19 58  1  0
 21 59  1  0
 23 60  1  1
 25 61  1  0
 26 62  1  0
 27 63  1  0
 28 64  1  0
 29 65  1  0
 30 66  1  0
 32 67  1  0
 34 68  1  0
M  CHG  1  28   1
M  END
