7D8Q_GZF_A_201
     RDKit          3D

 28 30  0  0  0  0  0  0  0  0999 V2000
  -11.8527  -12.4596   27.7444 O   0  0  0  0  0  0  0  0  0  0  0  0
  -11.6297  -11.1734   28.2473 C   0  0  1  0  0  0  0  0  0  0  0  0
  -12.1701  -10.0984   27.3123 C   0  0  1  0  0  0  0  0  0  0  0  0
  -13.2287  -10.7969   26.5048 C   0  0  0  0  0  0  0  0  0  0  0  0
  -12.7776  -11.8006   25.6844 O   0  0  0  0  0  0  0  0  0  0  0  0
  -11.7966  -11.0336   24.5172 P   0  0  2  0  0  5  0  0  0  0  0  0
  -10.2061  -11.0703   25.0841 O   0  0  0  0  0  0  0  0  0  0  0  0
  -12.1742   -9.5918   24.3313 O   0  0  0  0  0  0  0  0  0  0  0  0
  -11.9857  -11.8559   23.0766 O   0  0  0  0  0  0  0  0  0  0  0  0
  -12.6169  -13.3964   23.2387 P   0  0  2  0  0  5  0  0  0  0  0  0
  -14.1198  -13.6105   22.5468 O   0  0  0  0  0  0  0  0  0  0  0  0
  -12.6188  -13.7948   24.8835 O   0  0  0  0  0  0  0  0  0  0  0  0
  -11.5266  -14.4953   22.4423 S   0  0  0  0  0  0  0  0  0  0  0  0
  -12.6458   -9.0748   28.0868 O   0  0  0  0  0  0  0  0  0  0  0  0
  -12.8324   -9.5061   29.3691 C   0  0  2  0  0  0  0  0  0  0  0  0
  -11.9908   -8.8315   30.3418 N   0  0  0  0  0  0  0  0  0  0  0  0
  -10.8218   -8.2560   30.0029 C   0  0  0  0  0  0  0  0  0  0  0  0
  -10.2638   -7.7117   31.1012 N   0  0  0  0  0  0  0  0  0  0  0  0
  -11.0953   -7.9573   32.1074 C   0  0  0  0  0  0  0  0  0  0  0  0
  -10.9730   -7.6036   33.4440 C   0  0  0  0  0  0  0  0  0  0  0  0
   -9.9106   -6.9048   33.9577 O   0  0  0  0  0  0  0  0  0  0  0  0
  -11.9926   -7.9972   34.2462 N   0  0  0  0  0  0  0  0  0  0  0  0
  -13.0579   -8.6850   33.7915 C   0  0  0  0  0  0  0  0  0  0  0  0
  -14.0545   -9.0325   34.7495 N   0  0  0  0  0  0  0  0  0  0  0  0
  -13.1787   -9.0333   32.4767 N   0  0  0  0  0  0  0  0  0  0  0  0
  -12.1978   -8.6640   31.6612 C   0  0  0  0  0  0  0  0  0  0  0  0
  -12.5318  -10.9836   29.4302 C   0  0  1  0  0  0  0  0  0  0  0  0
  -13.6479  -11.7835   29.4449 O   0  0  0  0  0  0  0  0  0  0  0  0
  2  1  1  6
  2  3  1  0
  3  4  1  0
  4  5  1  6
  6  5  1  0
  6  7  1  1
  6  8  2  0
  6  9  1  0
  9 10  1  0
 10 11  1  6
 10 12  1  0
 10 13  2  0
  3 14  1  1
 14 15  1  0
 15 16  1  1
 16 17  1  0
 17 18  2  0
 18 19  1  0
 19 20  2  0
 20 21  1  0
 20 22  1  0
 22 23  2  0
 23 24  1  0
 23 25  1  0
 25 26  2  0
 16 26  1  0
 19 26  1  0
  2 27  1  0
 15 27  1  0
 27 28  1  6
M  END
$$$$
