
     RDKit          3D

  9  9  0  0  0  0  0  0  0  0999 V2000
  -10.5566    2.4006   10.2032 C   0  0  0  0  0  0  0  0  0  0  0  0
  -11.4554    3.2088   10.3474 O   0  0  0  0  0  0  0  0  0  0  0  0
  -10.4963    1.2852   10.9524 O   0  0  0  0  0  0  0  0  0  0  0  0
   -9.4410    2.5048    9.2320 C   0  0  0  0  0  0  0  0  0  0  0  0
   -9.7438    2.8458    7.9076 C   0  0  0  0  0  0  0  0  0  0  0  0
   -8.7235    2.9547    6.9608 C   0  0  0  0  0  0  0  0  0  0  0  0
   -7.3994    2.7238    7.3332 C   0  0  0  0  0  0  0  0  0  0  0  0
   -7.0920    2.3839    8.6507 C   0  0  0  0  0  0  0  0  0  0  0  0
   -8.1098    2.2739    9.6010 C   0  0  0  0  0  0  0  0  0  0  0  0
  1  2  2  0
  1  3  1  0
  1  4  1  0
  4  5  4  0
  5  6  4  0
  6  7  4  0
  7  8  4  0
  4  9  4  0
  8  9  4  0
M  END
