1XOZ_CIA_A_501
     RDKit          3D

 29 34  0  0  0  0  0  0  0  0999 V2000
   42.9256   38.6728   11.6326 C   0  0  0  0  0  0  0  0  0  0  0  0
   42.2820   37.8100   12.5219 C   0  0  0  0  0  0  0  0  0  0  0  0
   42.8998   36.6044   12.7879 C   0  0  0  0  0  0  0  0  0  0  0  0
   44.0874   36.2111   12.2398 C   0  0  0  0  0  0  0  0  0  0  0  0
   44.8898   35.0904   12.3399 C   0  0  0  0  0  0  0  0  0  0  0  0
   45.9828   35.2929   11.5251 C   0  0  0  0  0  0  0  0  0  0  0  0
   45.8845   36.4929   10.9276 N   0  0  0  0  0  0  0  0  0  0  0  0
   44.7262   37.0661   11.3578 C   0  0  0  0  0  0  0  0  0  0  0  0
   44.1385   38.2825   11.0666 C   0  0  0  0  0  0  0  0  0  0  0  0
   46.9894   34.1782   11.4976 C   0  0  2  0  0  0  0  0  0  0  0  0
   47.1603   33.6908   12.8512 N   0  0  0  0  0  0  0  0  0  0  0  0
   48.4724   33.3909   13.3445 C   0  0  0  0  0  0  0  0  0  0  0  0
   49.3644   32.9591   12.5805 O   0  0  0  0  0  0  0  0  0  0  0  0
   48.7328   33.6138   14.8058 C   0  0  0  0  0  0  0  0  0  0  0  0
   47.6686   34.3677   15.4394 N   0  0  0  0  0  0  0  0  0  0  0  0
   46.3053   34.2917   15.0051 C   0  0  0  0  0  0  0  0  0  0  0  0
   45.3881   34.8766   15.6329 O   0  0  0  0  0  0  0  0  0  0  0  0
   46.0673   33.4819   13.7766 C   0  0  1  0  0  0  0  0  0  0  0  0
   44.7779   33.8336   13.0965 C   0  0  0  0  0  0  0  0  0  0  0  0
   48.0492   35.2261   16.5637 C   0  0  0  0  0  0  0  0  0  0  0  0
   48.2658   34.6600   10.9071 C   0  0  0  0  0  0  0  0  0  0  0  0
   48.8040   35.8696   11.2846 C   0  0  0  0  0  0  0  0  0  0  0  0
   49.9865   36.3657   10.7765 C   0  0  0  0  0  0  0  0  0  0  0  0
   50.6739   35.6154    9.8384 C   0  0  0  0  0  0  0  0  0  0  0  0
   51.8627   35.8202    9.1455 O   0  0  0  0  0  0  0  0  0  0  0  0
   52.3254   34.5077    8.8020 C   0  0  0  0  0  0  0  0  0  0  0  0
   51.0809   33.8902    8.4904 O   0  0  0  0  0  0  0  0  0  0  0  0
   50.1672   34.3790    9.4227 C   0  0  0  0  0  0  0  0  0  0  0  0
   48.9796   33.9340    9.9660 C   0  0  0  0  0  0  0  0  0  0  0  0
  1  2  2  0
  2  3  1  0
  3  4  2  0
  4  5  1  0
  5  6  2  0
  6  7  1  0
  4  8  1  0
  7  8  1  0
  1  9  1  0
  8  9  2  0
  6 10  1  0
 10 11  1  0
 11 12  1  0
 12 13  2  0
 12 14  1  0
 14 15  1  1
 15 16  1  0
 16 17  2  0
 11 18  1  0
 18 16  1  1
 19  5  1  6
 18 19  1  0
 20 15  1  1
 10 21  1  1
 21 22  2  0
 22 23  1  0
 23 24  2  0
 24 25  1  0
 26 25  1  6
 26 27  1  0
 24 28  1  0
 27 28  1  0
 21 29  1  0
 28 29  2  0
M  END
$$$$
