8CGC_LMR_A_1001
     RDKit          3D

 15 14  0  0  0  0  0  0  0  0999 V2000
   51.1299   43.4843   -7.3674 C   0  0  0  0  0  0  0  0  0  0  0  0
   51.8458   42.7080   -6.6797 O   0  0  0  0  0  0  0  0  0  0  0  0
   51.5147   44.8111   -7.5394 O   0  0  0  0  0  0  0  0  0  0  0  0
   49.8924   42.9638   -8.0396 C   0  0  1  0  0  0  0  0  0  0  0  0
   48.7773   43.6998   -7.6064 O   0  0  0  0  0  0  0  0  0  0  0  0
   50.0256   43.0261   -9.5721 C   0  0  2  0  0  0  0  0  0  0  0  0
   51.2439   43.7836  -10.0095 C   0  0  0  0  0  0  0  0  0  0  0  0
   52.3444   43.0965  -10.5123 O   0  0  0  0  0  0  0  0  0  0  0  0
   51.2838   45.0378   -9.8935 O   0  0  0  0  0  0  0  0  0  0  0  0
   52.4443   45.1201   -7.2815 H   0  0  0  0  0  0  0  0  0  0  0  0
   49.7647   41.8967   -7.7419 H   0  0  0  0  0  0  0  0  0  0  0  0
   48.4619   44.2278   -8.3861 H   0  0  0  0  0  0  0  0  0  0  0  0
   49.1221   43.5145   -9.9976 H   0  0  0  0  0  0  0  0  0  0  0  0
   50.0660   41.9950   -9.9861 H   0  0  0  0  0  0  0  0  0  0  0  0
   52.2232   42.2985  -11.1243 H   0  0  0  0  0  0  0  0  0  0  0  0
  1  2  2  0
  1  3  1  0
  1  4  1  0
  4  5  1  0
  4  6  1  0
  6  7  1  0
  7  8  1  0
  7  9  2  0
  3 10  1  0
  4 11  1  6
  5 12  1  0
  6 13  1  6
  6 14  1  0
  8 15  1  0
M  END
