7MGY_ZD1_A_701
     RDKit          3D

 23 24  0  0  0  0  0  0  0  0999 V2000
   17.2050  -28.9440  330.7239 C   0  0  1  0  0  0  0  0  0  0  0  0
   16.2872  -27.9802  330.0604 C   0  0  0  0  0  0  0  0  0  0  0  0
   16.3062  -27.9871  328.7147 C   0  0  0  0  0  0  0  0  0  0  0  0
   15.4471  -27.0834  327.9030 C   0  0  0  0  0  0  0  0  0  0  0  0
   17.2562  -28.9684  328.1005 C   0  0  2  0  0  0  0  0  0  0  0  0
   16.7897  -30.1520  326.1882 C   0  0  1  0  0  0  0  0  0  0  0  0
   17.5843  -30.4802  324.9416 C   0  0  1  0  0  0  0  0  0  0  0  0
   16.7239  -31.2438  323.9571 C   0  0  2  0  0  0  0  0  0  0  0  0
   15.9018  -32.2174  324.7920 C   0  0  1  0  0  0  0  0  0  0  0  0
   14.9737  -31.4215  325.6504 C   0  0  1  0  0  0  0  0  0  0  0  0
   14.6908  -32.2441  326.8913 C   0  0  0  0  0  0  0  0  0  0  0  0
   18.5980  -28.5920  328.6944 C   0  0  1  0  0  0  0  0  0  0  0  0
   18.5716  -29.0147  330.1394 C   0  0  1  0  0  0  0  0  0  0  0  0
   17.2474  -28.6547  332.1518 N   0  0  0  0  0  0  0  0  0  0  0  0
   14.4020  -26.6386  328.7110 O   0  0  0  0  0  0  0  0  0  0  0  0
   17.2194  -28.9584  326.7285 O   0  0  0  0  0  0  0  0  0  0  0  0
   18.0826  -29.2920  324.4218 O   0  0  0  0  0  0  0  0  0  0  0  0
   17.4911  -31.9208  323.0187 O   0  0  0  0  0  0  0  0  0  0  0  0
   15.1523  -33.0175  323.9363 O   0  0  0  0  0  0  0  0  0  0  0  0
   13.4842  -31.8185  327.4927 O   0  0  0  0  0  0  0  0  0  0  0  0
   15.4204  -30.1588  325.9407 O   0  0  0  0  0  0  0  0  0  0  0  0
   19.6610  -29.1223  327.9788 O   0  0  0  0  0  0  0  0  0  0  0  0
   19.5265  -28.3521  330.9022 O   0  0  0  0  0  0  0  0  0  0  0  0
  1  2  1  0
  2  3  2  0
  3  4  1  0
  3  5  1  0
  6  7  1  0
  7  8  1  0
  8  9  1  0
  9 10  1  0
 10 11  1  1
  5 12  1  0
 12 13  1  0
  1 13  1  0
  1 14  1  1
  4 15  1  0
  6 16  1  6
  5 16  1  6
  7 17  1  6
  8 18  1  6
  9 19  1  6
 11 20  1  0
 10 21  1  0
  6 21  1  0
 12 22  1  6
 13 23  1  1
M  END
$$$$
