1SQN_NDR_B_2001
     RDKit          3D

 22 25  0  0  0  0  0  0  0  0999 V2000
   -3.4200   -0.1732   31.0737 O   0  0  0  0  0  0  0  0  0  0  0  0
   -3.4003   -0.2157   29.8111 C   0  0  0  0  0  0  0  0  0  0  0  0
   -4.6177   -0.0762   28.9718 C   0  0  0  0  0  0  0  0  0  0  0  0
   -2.1386   -0.4107   29.1020 C   0  0  0  0  0  0  0  0  0  0  0  0
   -2.0063    0.2757   27.9606 C   0  0  0  0  0  0  0  0  0  0  0  0
   -0.7049    0.0592   27.2489 C   0  0  0  0  0  0  0  0  0  0  0  0
   -3.0324    1.1849   27.4317 C   0  0  2  0  0  0  0  0  0  0  0  0
   -4.3958    1.0443   27.9938 C   0  0  0  0  0  0  0  0  0  0  0  0
   -3.0781    1.2033   25.9209 C   0  0  2  0  0  0  0  0  0  0  0  0
   -1.6343    1.3303   25.4263 C   0  0  1  0  0  0  0  0  0  0  0  0
   -0.9540    0.0144   25.7374 C   0  0  0  0  0  0  0  0  0  0  0  0
   -3.9017    2.3849   25.4718 C   0  0  0  0  0  0  0  0  0  0  0  0
   -3.8441    2.5740   23.9597 C   0  0  0  0  0  0  0  0  0  0  0  0
   -2.4185    2.8174   23.6020 C   0  0  2  0  0  0  0  0  0  0  0  0
   -1.7036    1.5402   23.9753 C   0  0  1  0  0  0  0  0  0  0  0  0
   -1.9466    4.0371   24.3017 C   0  0  0  0  0  0  0  0  0  0  0  0
   -2.1455    2.9071   22.1311 C   0  0  1  0  0  0  0  0  0  0  0  0
   -1.5201    4.1403   21.8527 O   0  0  0  0  0  0  0  0  0  0  0  0
   -1.0733    1.8684   21.8038 C   0  0  0  0  0  0  0  0  0  0  0  0
   -0.4551    1.6317   23.1920 C   0  0  0  0  0  0  0  0  0  0  0  0
   -3.3021    2.6954   21.2972 C   0  0  0  0  0  0  0  0  0  0  0  0
   -4.2615    2.5353   20.5903 C   0  0  0  0  0  0  0  0  0  0  0  0
  1  2  2  0
  3  2  1  6
  2  4  1  0
  4  5  2  0
  6  5  1  1
  7  5  1  6
  8  3  1  1
  7  8  1  0
  7  9  1  0
  9 10  1  0
 11  6  1  1
 10 11  1  6
  9 12  1  1
 13 12  1  1
 13 14  1  0
 10 15  1  0
 14 15  1  0
 14 16  1  1
 14 17  1  0
 17 18  1  1
 17 19  1  0
 15 20  1  1
 19 20  1  6
 17 21  1  0
 21 22  3  0
M  END
$$$$
