1R58_AO5_A_501
     RDKit          3D

 23 23  0  0  0  0  0  0  0  0999 V2000
   19.7644   33.1375   16.2672 C   0  0  2  0  0  0  0  0  0  0  0  0
   18.3814   32.5229   16.3466 C   0  0  0  0  0  0  0  0  0  0  0  0
   19.7165   34.6252   16.2166 C   0  0  0  0  0  0  0  0  0  0  0  0
   20.7131   32.3731   14.9349 S   0  0  0  0  0  0  0  0  0  0  0  0
   21.3372   30.7774   15.3691 C   0  0  0  0  0  0  0  0  0  0  0  0
   20.7838   30.0932   16.5522 C   0  0  0  0  0  0  0  0  0  0  0  0
   20.4090   28.6650   16.4368 C   0  0  1  0  0  0  0  0  0  0  0  0
   21.4132   27.7282   16.0968 N   0  0  0  0  0  0  0  0  0  0  0  0
   19.9279   28.2551   17.8442 C   0  0  2  0  0  0  0  0  0  0  0  0
   20.0178   26.8688   17.9164 O   0  0  0  0  0  0  0  0  0  0  0  0
   18.5095   28.6428   18.0343 C   0  0  0  0  0  0  0  0  0  0  0  0
   17.6216   28.3490   17.1830 O   0  0  0  0  0  0  0  0  0  0  0  0
   18.1292   29.3706   19.2131 N   0  0  0  0  0  0  0  0  0  0  0  0
   16.8089   29.8297   19.3285 N   0  0  0  0  0  0  0  0  0  0  0  0
   15.8064   28.8239   19.4888 C   0  0  0  0  0  0  0  0  0  0  0  0
   16.2275   27.6635   19.7479 O   0  0  0  0  0  0  0  0  0  0  0  0
   14.3842   29.1149   19.3621 C   0  0  0  0  0  0  0  0  0  0  0  0
   13.3888   28.2437   19.7348 C   0  0  0  0  0  0  0  0  0  0  0  0
   12.0434   28.5211   19.6136 C   0  0  0  0  0  0  0  0  0  0  0  0
   11.6929   29.7411   19.0892 C   0  0  0  0  0  0  0  0  0  0  0  0
   12.6871   30.6313   18.7083 C   0  0  0  0  0  0  0  0  0  0  0  0
   14.0148   30.3304   18.8396 C   0  0  0  0  0  0  0  0  0  0  0  0
   12.2411   32.1912   18.0375 Cl  0  0  0  0  0  0  0  0  0  0  0  0
  2  1  1  1
  3  1  1  6
  1  4  1  6
  5  4  1  1
  6  5  1  6
  6  7  1  0
  7  8  1  1
  7  9  1  0
  9 10  1  6
  9 11  1  0
 11 12  2  0
 11 13  1  0
 13 14  1  0
 14 15  1  0
 15 16  2  0
 15 17  1  0
 17 18  2  0
 18 19  1  0
 19 20  2  0
 20 21  1  0
 17 22  1  0
 21 22  2  0
 21 23  1  0
M  END
$$$$
