
     RDKit          3D

 37 41  0  0  0  0  0  0  0  0999 V2000
  -17.2148  -12.4437  -15.9788 F   0  0  0  0  0  0  0  0  0  0  0  0
  -17.8445  -12.7604  -14.8385 C   0  0  0  0  0  0  0  0  0  0  0  0
  -18.0413  -14.1005  -14.5283 C   0  0  0  0  0  0  0  0  0  0  0  0
  -18.6850  -14.4274  -13.3398 C   0  0  0  0  0  0  0  0  0  0  0  0
  -18.8711  -15.7160  -13.0236 F   0  0  0  0  0  0  0  0  0  0  0  0
  -19.1294  -13.4399  -12.4632 C   0  0  0  0  0  0  0  0  0  0  0  0
  -18.9297  -12.0945  -12.7789 C   0  0  0  0  0  0  0  0  0  0  0  0
  -18.2963  -11.7531  -13.9842 C   0  0  0  0  0  0  0  0  0  0  0  0
  -18.0252  -10.4493  -14.3402 O   0  0  0  0  0  0  0  0  0  0  0  0
  -19.1141   -9.6191  -14.5003 C   0  0  0  0  0  0  0  0  0  0  0  0
  -20.2719  -10.0984  -15.1230 C   0  0  0  0  0  0  0  0  0  0  0  0
  -21.3693   -9.2513  -15.2954 C   0  0  0  0  0  0  0  0  0  0  0  0
  -21.2970   -7.9275  -14.8611 C   0  0  0  0  0  0  0  0  0  0  0  0
  -22.4115   -7.0459  -15.0098 N   0  0  0  0  0  0  0  0  0  0  0  0
  -22.1273   -5.6129  -15.8710 S   0  0  0  0  0  6  0  0  0  0  0  0
  -23.3393   -5.1599  -16.5136 O   0  0  0  0  0  0  0  0  0  0  0  0
  -21.4001   -4.7678  -14.9476 O   0  0  0  0  0  0  0  0  0  0  0  0
  -20.9725   -6.1656  -17.1180 C   0  0  0  0  0  0  0  0  0  0  0  0
  -21.5371   -6.1050  -18.5247 C   0  0  0  0  0  0  0  0  0  0  0  0
  -20.1377   -7.4426  -14.2570 C   0  0  0  0  0  0  0  0  0  0  0  0
  -19.0250   -8.2804  -14.0831 C   0  0  0  0  0  0  0  0  0  0  0  0
  -17.8220   -7.7423  -13.4211 C   0  0  0  0  0  0  0  0  0  0  0  0
  -17.0150   -6.8793  -14.0759 C   0  0  0  0  0  0  0  0  0  0  0  0
  -15.8661   -6.3133  -13.5104 N   0  0  0  0  0  0  0  0  0  0  0  0
  -15.0780   -5.4054  -14.3272 C   0  0  0  0  0  0  0  0  0  0  0  0
  -15.4379   -6.5931  -12.1956 C   0  0  0  0  0  0  0  0  0  0  0  0
  -14.4354   -6.1145  -11.6737 O   0  0  0  0  0  0  0  0  0  0  0  0
  -16.2980   -7.5172  -11.4802 C   0  0  0  0  0  0  0  0  0  0  0  0
  -16.2425   -8.0503  -10.1703 C   0  0  0  0  0  0  0  0  0  0  0  0
  -17.4209   -8.0438  -12.0893 C   0  0  0  0  0  0  0  0  0  0  0  0
  -18.0483   -8.8805  -11.2077 O   0  0  0  0  0  0  0  0  0  0  0  0
  -17.3335   -8.8895  -10.0368 C   0  0  0  0  0  0  0  0  0  0  0  0
  -17.7376   -9.6707   -8.9179 C   0  0  0  0  0  0  0  0  0  0  0  0
  -17.1060  -10.0103   -7.7429 C   0  0  0  0  0  0  0  0  0  0  0  0
  -17.9188  -10.7966   -6.9599 N   0  0  0  0  0  0  0  0  0  0  0  0
  -19.0317  -10.9350   -7.6440 C   0  0  0  0  0  0  0  0  0  0  0  0
  -18.9677  -10.2757   -8.8369 N   0  0  0  0  0  0  0  0  0  0  0  0
  1  2  1  0
  2  3  4  0
  3  4  4  0
  4  5  1  0
  4  6  4  0
  6  7  4  0
  2  8  4  0
  7  8  4  0
  8  9  1  0
  9 10  1  0
 10 11  4  0
 11 12  4  0
 12 13  4  0
 13 14  1  0
 14 15  1  0
 15 16  2  0
 15 17  2  0
 15 18  1  0
 18 19  1  0
 13 20  4  0
 10 21  4  0
 20 21  4  0
 21 22  1  0
 22 23  4  0
 23 24  4  0
 24 25  1  0
 24 26  4  0
 26 27  2  0
 26 28  4  0
 28 29  4  0
 28 30  4  0
 22 30  4  0
 30 31  4  0
 29 32  4  0
 31 32  4  0
 32 33  1  0
 33 34  4  0
 34 35  4  0
 35 36  4  0
 36 37  4  0
 33 37  4  0
M  END
