1V0P_PVB_A_1287
     RDKit          3D

 30 32  0  0  0  0  0  0  0  0999 V2000
   30.5640   29.1533   -4.8217 N   0  0  0  0  0  0  0  0  0  0  0  0
   26.0540   29.4859   -2.4190 C   0  0  1  0  0  0  0  0  0  0  0  0
   26.9196   30.0772   -3.4474 N   0  0  0  0  0  0  0  0  0  0  0  0
   28.1420   29.5947   -3.7601 C   0  0  0  0  0  0  0  0  0  0  0  0
   28.9155   28.5785   -3.3424 N   0  0  0  0  0  0  0  0  0  0  0  0
   30.1436   28.3266   -3.8564 C   0  0  0  0  0  0  0  0  0  0  0  0
   29.8527   30.1917   -5.2958 C   0  0  0  0  0  0  0  0  0  0  0  0
   28.6067   30.4269   -4.7566 C   0  0  0  0  0  0  0  0  0  0  0  0
   27.7026   31.3814   -5.0420 N   0  0  0  0  0  0  0  0  0  0  0  0
   26.6555   31.1507   -4.2176 C   0  0  0  0  0  0  0  0  0  0  0  0
   30.3345   31.0547   -6.3187 N   0  0  0  0  0  0  0  0  0  0  0  0
   31.4641   30.7002   -7.1034 C   0  0  0  0  0  0  0  0  0  0  0  0
   31.4396   30.8598   -8.4932 C   0  0  0  0  0  0  0  0  0  0  0  0
   32.5762   30.5015   -9.1875 C   0  0  0  0  0  0  0  0  0  0  0  0
   33.7065   30.0043   -8.5745 C   0  0  0  0  0  0  0  0  0  0  0  0
   33.7347   29.8427   -7.1841 C   0  0  0  0  0  0  0  0  0  0  0  0
   35.1266   29.2216   -6.3459 Cl  0  0  0  0  0  0  0  0  0  0  0  0
   32.5980   30.2012   -6.4907 C   0  0  0  0  0  0  0  0  0  0  0  0
   34.8965   29.6389   -9.3663 C   0  0  0  0  0  0  0  0  0  0  0  0
   34.8668   29.7927  -10.7441 O   0  0  0  0  0  0  0  0  0  0  0  0
   35.9021   29.1975   -8.7527 O   0  0  0  0  0  0  0  0  0  0  0  0
   30.8884   27.2285   -3.3599 N   0  0  0  0  0  0  0  0  0  0  0  0
   32.1982   26.8430   -3.8334 C   0  0  2  0  0  0  0  0  0  0  0  0
   32.1241   25.7175   -4.8412 C   0  0  1  0  0  0  0  0  0  0  0  0
   33.5031   25.4019   -5.3533 C   0  0  0  0  0  0  0  0  0  0  0  0
   31.4364   24.4982   -4.2702 C   0  0  0  0  0  0  0  0  0  0  0  0
   33.0405   26.4643   -2.6381 C   0  0  0  0  0  0  0  0  0  0  0  0
   33.2247   27.5530   -1.7773 O   0  0  0  0  0  0  0  0  0  0  0  0
   25.8802   28.0287   -2.7584 C   0  0  0  0  0  0  0  0  0  0  0  0
   26.8002   29.6162   -1.1041 C   0  0  0  0  0  0  0  0  0  0  0  0
  2  3  1  6
  3  4  1  0
  4  5  2  0
  1  6  2  0
  5  6  1  0
  1  7  1  0
  4  8  1  0
  7  8  2  0
  8  9  1  0
  3 10  1  0
  9 10  2  0
  7 11  1  0
 11 12  1  0
 12 13  2  0
 13 14  1  0
 14 15  2  0
 15 16  1  0
 16 17  1  0
 12 18  1  0
 16 18  2  0
 15 19  1  0
 19 20  1  0
 19 21  2  0
  6 22  1  0
 23 22  1  1
 23 24  1  0
 24 25  1  1
 26 24  1  6
 23 27  1  0
 27 28  1  6
 29  2  1  6
 30  2  1  1
M  END
$$$$
