6YSP_PAL_C_401
     RDKit          3D

 26 25  0  0  0  0  0  0  0  0999 V2000
    9.8807   30.2453  -34.7976 P   0  0  1  0  0  5  0  0  0  0  0  0
    9.1481   30.7712  -36.0114 O   0  0  0  0  0  0  0  0  0  0  0  0
   11.0592   31.3634  -34.3239 O   0  0  0  0  0  0  0  0  0  0  0  0
    8.7842   30.0052  -33.5306 O   0  0  0  0  0  0  0  0  0  0  0  0
   10.6883   28.6694  -35.2065 C   0  0  2  0  0  0  0  0  0  0  0  0
   10.7433   27.7872  -33.9987 C   0  0  0  0  0  0  0  0  0  0  0  0
   11.2025   28.2460  -32.9176 O   0  0  0  0  0  0  0  0  0  0  0  0
   10.2518   26.4404  -34.0658 N   0  0  0  0  0  0  0  0  0  0  0  0
    9.2427   25.9266  -33.1310 C   0  0  2  0  0  0  0  0  0  0  0  0
    9.6982   24.6331  -32.5060 C   0  0  0  0  0  0  0  0  0  0  0  0
    9.5794   24.4613  -31.2631 O   0  0  0  0  0  0  0  0  0  0  0  0
   10.2111   23.6086  -33.2972 O   0  0  0  0  0  0  0  0  0  0  0  0
    7.8755   25.7612  -33.8227 C   0  0  1  0  0  0  0  0  0  0  0  0
    7.9959   25.4912  -35.2931 C   0  0  0  0  0  0  0  0  0  0  0  0
    8.2094   26.4397  -36.0943 O   0  0  0  0  0  0  0  0  0  0  0  0
    7.8931   24.1883  -35.7703 O   0  0  0  0  0  0  0  0  0  0  0  0
   10.6261   32.2481  -34.4280 H   0  0  0  0  0  0  0  0  0  0  0  0
    7.8934   30.1684  -33.9312 H   0  0  0  0  0  0  0  0  0  0  0  0
   11.7161   28.8758  -35.5734 H   0  0  0  0  0  0  0  0  0  0  0  0
   10.1221   28.1659  -36.0179 H   0  0  0  0  0  0  0  0  0  0  0  0
   10.6308   25.8172  -34.8148 H   0  0  0  0  0  0  0  0  0  0  0  0
    9.1198   26.6657  -32.3076 H   0  0  0  0  0  0  0  0  0  0  0  0
    9.7015   22.7418  -33.4201 H   0  0  0  0  0  0  0  0  0  0  0  0
    7.3170   24.9273  -33.3444 H   0  0  0  0  0  0  0  0  0  0  0  0
    7.2700   26.6808  -33.6729 H   0  0  0  0  0  0  0  0  0  0  0  0
    8.1457   23.9636  -36.7251 H   0  0  0  0  0  0  0  0  0  0  0  0
  1  2  2  0
  1  3  1  1
  1  4  1  0
  1  5  1  0
  5  6  1  0
  6  7  2  0
  6  8  1  0
  8  9  1  0
  9 10  1  0
 10 11  2  0
 10 12  1  0
  9 13  1  0
 13 14  1  0
 14 15  2  0
 14 16  1  0
  3 17  1  0
  4 18  1  0
  5 19  1  6
  5 20  1  0
  8 21  1  0
  9 22  1  1
 12 23  1  0
 13 24  1  1
 13 25  1  0
 16 26  1  0
M  END
