7OP9_06K_I_301
     RDKit          3D

 13 14  0  0  0  0  0  0  0  0999 V2000
    2.2348    2.5615    2.8219 C   0  0  0  0  0  0  0  0  0  0  0  0
    0.2809    3.3157    1.7891 C   0  0  0  0  0  0  0  0  0  0  0  0
   -0.2208    2.0608    1.7633 C   0  0  0  0  0  0  0  0  0  0  0  0
    0.5123    1.0005    2.2792 C   0  0  0  0  0  0  0  0  0  0  0  0
   -1.6228    3.3897    0.8920 C   0  0  0  0  0  0  0  0  0  0  0  0
    1.7414    1.2811    2.8042 N   0  0  0  0  0  0  0  0  0  0  0  0
    1.4999    3.5954    2.3093 N   0  0  0  0  0  0  0  0  0  0  0  0
   -1.4325    2.0808    1.1968 N   0  0  0  0  0  4  0  0  0  0  0  0
   -0.5799    4.1913    1.2443 N   0  0  0  0  0  0  0  0  0  0  0  0
    3.8154    2.8739    3.5049 Cl  0  0  0  0  0  0  0  0  0  0  0  0
   -0.0977   -0.6428    2.2676 Cl  0  0  0  0  0  0  0  0  0  0  0  0
   -2.5189    3.7625    0.4140 H   0  0  0  0  0  0  0  0  0  0  0  0
   -2.0829    1.2820    1.0265 H   0  0  0  0  0  0  0  0  0  0  0  0
  2  3  4  0
  3  4  4  0
  1  6  4  0
  4  6  4  0
  1  7  4  0
  2  7  4  0
  3  8  4  0
  5  8  4  0
  2  9  4  0
  5  9  4  0
  1 10  1  0
  4 11  1  0
  5 12  1  0
  8 13  1  0
M  CHG  1   8   1
M  END
