7D8Q_GZF_A_201
     RDKit          3D

 43 45  0  0  0  0  0  0  0  0999 V2000
  -31.6159   -5.1531   20.2225 O   0  0  0  0  0  0  0  0  0  0  0  0
  -31.9011   -4.7916   21.5790 C   0  0  2  0  0  0  0  0  0  0  0  0
  -31.3078   -3.5913   22.0458 C   0  0  2  0  0  0  0  0  0  0  0  0
  -29.8043   -3.1428   21.8530 C   0  0  0  0  0  0  0  0  0  0  0  0
  -28.9974   -3.1430   23.0372 O   0  0  0  0  0  0  0  0  0  0  0  0
  -29.1994   -4.4915   23.8387 P   0  0  1  0  0  5  0  0  0  0  0  0
  -30.6002   -4.6245   24.3412 O   0  0  0  0  0  0  0  0  0  0  0  0
  -28.7888   -5.7435   23.0466 O   0  0  0  0  0  0  0  0  0  0  0  0
  -28.1357   -4.3100   25.0520 O   0  0  0  0  0  0  0  0  0  0  0  0
  -28.1428   -3.6737   26.5220 P   0  0  2  0  0  5  0  0  0  0  0  0
  -27.8819   -2.1683   26.1147 O   0  0  0  0  0  0  0  0  0  0  0  0
  -27.0836   -4.3791   27.4288 O   0  0  0  0  0  0  0  0  0  0  0  0
  -29.9772   -3.9073   27.2636 S   0  0  0  0  0  0  0  0  0  0  0  0
  -31.3216   -3.7786   23.6334 O   0  0  0  0  0  0  0  0  0  0  0  0
  -30.8908   -5.0392   23.7172 C   0  0  1  0  0  0  0  0  0  0  0  0
  -30.5693   -5.3931   25.1226 N   0  0  0  0  0  4  0  0  0  0  0  0
  -31.4958   -6.2001   25.6958 C   0  0  0  0  0  0  0  0  0  0  0  0
  -31.2126   -6.4552   26.9483 N   0  0  0  0  0  0  0  0  0  0  0  0
  -30.0684   -5.7610   27.2364 C   0  0  0  0  0  0  0  0  0  0  0  0
  -29.3383   -5.7027   28.4466 C   0  0  0  0  0  0  0  0  0  0  0  0
  -29.7113   -6.3065   29.4281 O   0  0  0  0  0  0  0  0  0  0  0  0
  -28.2411   -4.9452   28.4286 N   0  0  0  0  0  0  0  0  0  0  0  0
  -27.8316   -4.2655   27.3272 C   0  0  0  0  0  0  0  0  0  0  0  0
  -26.6210   -3.4761   27.4208 N   0  0  0  0  0  0  0  0  0  0  0  0
  -28.4979   -4.2969   26.1629 N   0  0  0  0  0  0  0  0  0  0  0  0
  -29.6487   -5.0585   26.0971 C   0  0  0  0  0  0  0  0  0  0  0  0
  -31.6611   -5.9022   22.6524 C   0  0  2  0  0  0  0  0  0  0  0  0
  -30.7694   -6.9511   22.3175 O   0  0  0  0  0  0  0  0  0  0  0  0
  -31.7972   -4.3978   19.6415 H   0  0  0  0  0  0  0  0  0  0  0  0
  -32.9550   -4.6326   21.4847 H   0  0  0  0  0  0  0  0  0  0  0  0
  -31.8601   -2.8747   21.4746 H   0  0  0  0  0  0  0  0  0  0  0  0
  -29.3514   -3.8071   21.1470 H   0  0  0  0  0  0  0  0  0  0  0  0
  -29.8440   -2.1241   21.5282 H   0  0  0  0  0  0  0  0  0  0  0  0
  -31.2044   -4.7307   23.5898 H   0  0  0  0  0  0  0  0  0  0  0  0
  -26.9844   -2.0809   25.7573 H   0  0  0  0  0  0  0  0  0  0  0  0
  -26.1993   -4.2536   27.0507 H   0  0  0  0  0  0  0  0  0  0  0  0
  -29.9098   -5.2978   23.3770 H   0  0  0  0  0  0  0  0  0  0  0  0
  -32.3246   -6.5689   25.2039 H   0  0  0  0  0  0  0  0  0  0  0  0
  -30.4900   -6.8263   29.3906 H   0  0  0  0  0  0  0  0  0  0  0  0
  -26.1199   -3.4418   28.2675 H   0  0  0  0  0  0  0  0  0  0  0  0
  -26.2992   -2.9736   26.6376 H   0  0  0  0  0  0  0  0  0  0  0  0
  -32.5807   -6.3965   22.8866 H   0  0  0  0  0  0  0  0  0  0  0  0
  -29.9029   -6.5787   22.0904 H   0  0  0  0  0  0  0  0  0  0  0  0
  2  1  1  0
  2  3  1  0
  3  4  1  0
  4  5  1  0
  6  5  1  1
  6  7  1  0
  6  8  2  0
  6  9  1  0
 10  9  1  1
 10 11  1  0
 10 12  1  0
 10 13  2  0
  3 14  1  0
 14 15  1  0
 15 16  1  0
 16 17  4  0
 17 18  4  0
 18 19  4  0
 19 20  4  0
 20 21  1  0
 20 22  4  0
 22 23  4  0
 23 24  1  0
 23 25  4  0
 25 26  4  0
 16 26  4  0
 19 26  4  0
  2 27  1  0
 15 27  1  0
 27 28  1  0
  1 29  1  0
  2 30  1  1
  3 31  1  6
  4 32  1  0
  4 33  1  0
  7 34  1  0
 11 35  1  0
 12 36  1  0
 15 37  1  1
 17 38  1  0
 21 39  1  0
 24 40  1  0
 24 41  1  0
 27 42  1  6
 28 43  1  0
M  CHG  1  16   1
M  END
