7WN5_JGL_B_501
     RDKit          3D

 37 41  0  0  0  0  0  0  0  0999 V2000
   -2.2467   -9.2805  -15.4440 F   0  0  0  0  0  0  0  0  0  0  0  0
   -2.9267   -8.2239  -15.6958 C   0  0  0  0  0  0  0  0  0  0  0  0
   -4.0203   -7.9956  -14.8832 C   0  0  0  0  0  0  0  0  0  0  0  0
   -4.7997   -6.8826  -15.0984 C   0  0  0  0  0  0  0  0  0  0  0  0
   -5.8767   -6.6976  -14.2757 F   0  0  0  0  0  0  0  0  0  0  0  0
   -4.4724   -5.9836  -16.1159 C   0  0  0  0  0  0  0  0  0  0  0  0
   -3.3678   -6.1991  -16.9236 C   0  0  0  0  0  0  0  0  0  0  0  0
   -2.5841   -7.3075  -16.6808 C   0  0  0  0  0  0  0  0  0  0  0  0
   -1.5076   -7.6009  -17.4300 O   0  0  0  0  0  0  0  0  0  0  0  0
   -0.3119   -6.9742  -17.4798 C   0  0  0  0  0  0  0  0  0  0  0  0
    0.1767   -6.1576  -16.4573 C   0  0  0  0  0  0  0  0  0  0  0  0
    1.4077   -5.5345  -16.5907 C   0  0  0  0  0  0  0  0  0  0  0  0
    2.1698   -5.7388  -17.7353 C   0  0  0  0  0  0  0  0  0  0  0  0
    3.3348   -5.0999  -17.7656 N   0  0  0  0  0  0  0  0  0  0  0  0
    3.6470   -3.8718  -18.7921 S   0  0  2  0  0  0  0  0  0  0  0  0
    3.5260   -4.3051  -20.2297 O   0  0  0  0  0  0  0  0  0  0  0  0
    5.0632   -3.3697  -18.5593 O   0  0  0  0  0  0  0  0  0  0  0  0
    2.5028   -2.4747  -18.5367 C   0  0  0  0  0  0  0  0  0  0  0  0
    2.9266   -1.7991  -17.2204 C   0  0  0  0  0  0  0  0  0  0  0  0
    1.6508   -6.5687  -18.7619 C   0  0  0  0  0  0  0  0  0  0  0  0
    0.4193   -7.2169  -18.6499 C   0  0  0  0  0  0  0  0  0  0  0  0
   -0.0784   -8.0605  -19.6826 C   0  0  0  0  0  0  0  0  0  0  0  0
   -0.0860   -7.6844  -20.9997 C   0  0  0  0  0  0  0  0  0  0  0  0
   -0.5625   -8.5446  -22.0099 N   0  0  0  0  0  0  0  0  0  0  0  0
   -0.5185   -7.9899  -23.3942 C   0  0  0  0  0  0  0  0  0  0  0  0
   -0.9900   -9.7957  -21.7227 C   0  0  0  0  0  0  0  0  0  0  0  0
   -1.4221  -10.5064  -22.6736 O   0  0  0  0  0  0  0  0  0  0  0  0
   -0.9767  -10.1849  -20.3956 C   0  0  0  0  0  0  0  0  0  0  0  0
   -1.3427  -11.3236  -19.6946 C   0  0  0  0  0  0  0  0  0  0  0  0
   -0.4998   -9.3175  -19.4344 C   0  0  0  0  0  0  0  0  0  0  0  0
   -0.5953   -9.9427  -18.2066 O   0  0  0  0  0  0  0  0  0  0  0  0
   -1.1070  -11.1630  -18.3511 C   0  0  0  0  0  0  0  0  0  0  0  0
   -1.2997  -11.9687  -17.2316 C   0  0  0  0  0  0  0  0  0  0  0  0
   -1.1325  -11.5861  -15.9514 C   0  0  0  0  0  0  0  0  0  0  0  0
   -1.4033  -12.6299  -15.1380 N   0  0  0  0  0  0  0  0  0  0  0  0
   -1.7679  -13.6429  -15.9138 C   0  0  0  0  0  0  0  0  0  0  0  0
   -1.7092  -13.2312  -17.1798 N   0  0  0  0  0  0  0  0  0  0  0  0
  1  2  1  0
  2  3  2  0
  3  4  1  0
  4  5  1  0
  4  6  2  0
  6  7  1  0
  2  8  1  0
  7  8  2  0
  8  9  1  0
  9 10  1  0
 10 11  2  0
 11 12  1  0
 12 13  2  0
 13 14  1  0
 14 15  1  0
 15 16  2  0
 15 17  2  0
 15 18  1  1
 18 19  1  0
 13 20  1  0
 10 21  1  0
 20 21  2  0
 21 22  1  0
 22 23  2  0
 23 24  1  0
 24 25  1  0
 24 26  1  0
 26 27  2  0
 26 28  1  0
 28 29  1  0
 28 30  2  0
 22 30  1  0
 30 31  1  0
 29 32  2  0
 31 32  1  0
 32 33  1  0
 33 34  2  0
 34 35  1  0
 35 36  2  0
 36 37  1  0
 33 37  1  0
M  END
