
     RDKit          3D

 25 26  0  0  0  0  0  0  0  0999 V2000
    8.5664   21.6227   30.9877 O   0  0  0  0  0  0  0  0  0  0  0  0
    9.2278   22.7415   30.0598 P   0  0  0  0  0  5  0  0  0  0  0  0
   10.6650   22.5149   29.7514 O   0  0  0  0  0  0  0  0  0  0  0  0
    8.9411   23.9925   31.0119 O   0  0  0  0  0  0  0  0  0  0  0  0
    8.1838   22.9327   28.8842 O   0  0  0  0  0  0  0  0  0  0  0  0
    8.3326   22.1571   27.5110 P   0  0  2  0  0  5  0  0  0  0  0  0
    7.8317   22.8240   26.2767 O   0  0  0  0  0  0  0  0  0  0  0  0
    7.5210   20.7988   27.7972 O   0  0  0  0  0  0  0  0  0  0  0  0
    9.8376   21.6130   27.4880 O   0  0  0  0  0  0  0  0  0  0  0  0
   10.0594   20.2461   27.7762 C   0  0  0  0  0  0  0  0  0  0  0  0
   11.4227   20.0470   28.4430 C   0  0  1  0  0  0  0  0  0  0  0  0
   11.2468   19.4480   29.7501 O   0  0  0  0  0  0  0  0  0  0  0  0
   12.3689   19.1399   27.6482 C   0  0  1  0  0  0  0  0  0  0  0  0
   13.7439   19.5546   27.8259 O   0  0  0  0  0  0  0  0  0  0  0  0
   12.2192   17.7845   28.3278 C   0  0  1  0  0  0  0  0  0  0  0  0
   13.3951   16.9888   28.1555 O   0  0  0  0  0  0  0  0  0  0  0  0
   12.0112   18.2317   29.7814 C   0  0  2  0  0  0  0  0  0  0  0  0
   11.3964   17.2749   30.6982 N   0  0  0  0  0  0  0  0  0  0  0  0
   11.8345   17.1735   32.0195 C   0  0  0  0  0  0  0  0  0  0  0  0
   12.7476   17.8656   32.4726 O   0  0  0  0  0  0  0  0  0  0  0  0
   11.2078   16.2801   32.8584 N   0  0  0  0  0  0  0  0  0  0  0  0
   10.2684   15.5145   32.4037 C   0  0  0  0  0  0  0  0  0  0  0  0
    9.6793   14.6651   33.2952 N   0  0  0  0  0  0  0  0  0  0  0  0
    9.8148   15.5401   31.0021 C   0  0  0  0  0  0  0  0  0  0  0  0
   10.4109   16.4361   30.2175 C   0  0  0  0  0  0  0  0  0  0  0  0
  1  2  1  0
  2  3  2  0
  2  4  1  0
  2  5  1  0
  5  6  1  0
  6  7  2  0
  6  8  1  1
  6  9  1  0
  9 10  1  0
 11 10  1  6
 11 12  1  0
 11 13  1  0
 13 14  1  1
 13 15  1  0
 15 16  1  1
 12 17  1  0
 15 17  1  0
 17 18  1  1
 18 19  4  0
 19 20  2  0
 19 21  4  0
 21 22  4  0
 22 23  1  0
 22 24  4  0
 18 25  4  0
 24 25  4  0
M  END
