1W2G_THM_B_1210
     RDKit          3D

 17 18  0  0  0  0  0  0  0  0999 V2000
   28.3548   24.6562   82.4307 O   0  0  0  0  0  0  0  0  0  0  0  0
   28.1109   23.6931   81.4759 C   0  0  0  0  0  0  0  0  0  0  0  0
   29.1991   22.6541   81.4691 C   0  0  1  0  0  0  0  0  0  0  0  0
   30.3745   23.2226   81.9817 O   0  0  0  0  0  0  0  0  0  0  0  0
   28.8085   21.5377   82.4034 C   0  0  1  0  0  0  0  0  0  0  0  0
   29.0674   20.2936   81.7993 O   0  0  0  0  0  0  0  0  0  0  0  0
   29.8749   21.6809   83.4933 C   0  0  0  0  0  0  0  0  0  0  0  0
   30.9827   22.1573   82.5731 C   0  0  2  0  0  0  0  0  0  0  0  0
   32.2167   22.4406   83.2440 N   0  0  0  0  0  0  0  0  0  0  0  0
   33.3829   21.8381   82.9756 C   0  0  0  0  0  0  0  0  0  0  0  0
   33.4259   20.9624   82.0806 O   0  0  0  0  0  0  0  0  0  0  0  0
   34.5289   22.1242   83.6225 N   0  0  0  0  0  0  0  0  0  0  0  0
   34.5299   23.0606   84.5938 C   0  0  0  0  0  0  0  0  0  0  0  0
   35.5986   23.3519   85.2226 O   0  0  0  0  0  0  0  0  0  0  0  0
   33.3573   23.7170   84.9163 C   0  0  0  0  0  0  0  0  0  0  0  0
   33.3273   24.7540   85.9825 C   0  0  0  0  0  0  0  0  0  0  0  0
   32.2067   23.3767   84.2117 C   0  0  0  0  0  0  0  0  0  0  0  0
  1  2  1  0
  3  2  1  1
  3  4  1  0
  3  5  1  0
  5  6  1  6
  5  7  1  0
  4  8  1  0
  7  8  1  0
  8  9  1  1
  9 10  1  0
 10 11  2  0
 10 12  1  0
 12 13  1  0
 13 14  2  0
 13 15  1  0
 15 16  1  0
  9 17  1  0
 15 17  2  0
M  END
$$$$
