1W2G_THM_B_1210
     RDKit          3D

 17 18  0  0  0  0  0  0  0  0999 V2000
   21.4705   36.0904   81.7430 O   0  0  0  0  0  0  0  0  0  0  0  0
   21.4831   36.9376   82.8295 C   0  0  0  0  0  0  0  0  0  0  0  0
   22.3990   38.1070   82.5898 C   0  0  1  0  0  0  0  0  0  0  0  0
   23.4322   37.7071   81.7295 O   0  0  0  0  0  0  0  0  0  0  0  0
   21.6279   39.1876   81.8759 C   0  0  1  0  0  0  0  0  0  0  0  0
   21.9058   40.4388   82.4565 O   0  0  0  0  0  0  0  0  0  0  0  0
   22.3409   39.2101   80.5207 C   0  0  0  0  0  0  0  0  0  0  0  0
   23.7154   38.8562   81.0560 C   0  0  2  0  0  0  0  0  0  0  0  0
   24.7255   38.7506   80.0451 N   0  0  0  0  0  0  0  0  0  0  0  0
   25.8066   39.5380   79.9665 C   0  0  0  0  0  0  0  0  0  0  0  0
   25.9706   40.4373   80.8234 O   0  0  0  0  0  0  0  0  0  0  0  0
   26.7413   39.4165   79.0046 N   0  0  0  0  0  0  0  0  0  0  0  0
   26.6060   38.4619   78.0608 C   0  0  0  0  0  0  0  0  0  0  0  0
   27.4741   38.3235   77.1390 O   0  0  0  0  0  0  0  0  0  0  0  0
   25.5115   37.6185   78.0888 C   0  0  0  0  0  0  0  0  0  0  0  0
   25.3351   36.5568   77.0619 C   0  0  0  0  0  0  0  0  0  0  0  0
   24.5809   37.7947   79.1081 C   0  0  0  0  0  0  0  0  0  0  0  0
  1  2  1  0
  3  2  1  6
  3  4  1  0
  3  5  1  0
  5  6  1  1
  5  7  1  0
  4  8  1  0
  7  8  1  0
  8  9  1  6
  9 10  1  0
 10 11  2  0
 10 12  1  0
 12 13  1  0
 13 14  2  0
 13 15  1  0
 15 16  1  0
  9 17  1  0
 15 17  2  0
M  END
$$$$
