1W2G_THM_B_1210
     RDKit          3D

 17 18  0  0  0  0  0  0  0  0999 V2000
   46.6283   22.0858   68.4917 O   0  0  0  0  0  0  0  0  0  0  0  0
   47.9643   22.2064   68.1771 C   0  0  0  0  0  0  0  0  0  0  0  0
   48.2431   23.5253   67.5088 C   0  0  1  0  0  0  0  0  0  0  0  0
   47.9374   24.5621   68.4026 O   0  0  0  0  0  0  0  0  0  0  0  0
   49.7191   23.6184   67.2179 C   0  0  1  0  0  0  0  0  0  0  0  0
   49.9215   24.1128   65.9162 O   0  0  0  0  0  0  0  0  0  0  0  0
   50.1295   24.7641   68.1475 C   0  0  0  0  0  0  0  0  0  0  0  0
   48.8247   25.5308   68.0439 C   0  0  2  0  0  0  0  0  0  0  0  0
   48.7879   26.7283   68.8299 N   0  0  0  0  0  0  0  0  0  0  0  0
   48.6924   27.9656   68.3249 C   0  0  0  0  0  0  0  0  0  0  0  0
   48.6293   28.1148   67.0825 O   0  0  0  0  0  0  0  0  0  0  0  0
   48.6599   29.0750   69.0877 N   0  0  0  0  0  0  0  0  0  0  0  0
   48.7252   28.9624   70.4307 C   0  0  0  0  0  0  0  0  0  0  0  0
   48.6965   29.9939   71.1773 O   0  0  0  0  0  0  0  0  0  0  0  0
   48.8247   27.7121   71.0110 C   0  0  0  0  0  0  0  0  0  0  0  0
   48.8985   27.5563   72.4886 C   0  0  0  0  0  0  0  0  0  0  0  0
   48.8537   26.6048   70.1690 C   0  0  0  0  0  0  0  0  0  0  0  0
  1  2  1  0
  3  2  1  1
  3  4  1  0
  3  5  1  0
  5  6  1  6
  5  7  1  0
  4  8  1  0
  7  8  1  0
  8  9  1  1
  9 10  1  0
 10 11  2  0
 10 12  1  0
 12 13  1  0
 13 14  2  0
 13 15  1  0
 15 16  1  0
  9 17  1  0
 15 17  2  0
M  END
$$$$
