1W2G_THM_B_1210
     RDKit          3D

 17 18  0  0  0  0  0  0  0  0999 V2000
   27.9864   41.0795   62.6706 O   0  0  0  0  0  0  0  0  0  0  0  0
   26.8639   41.4629   63.3717 C   0  0  0  0  0  0  0  0  0  0  0  0
   27.0838   42.7826   64.0599 C   0  0  1  0  0  0  0  0  0  0  0  0
   28.4531   43.0856   64.0366 O   0  0  0  0  0  0  0  0  0  0  0  0
   26.3828   43.8612   63.2742 C   0  0  1  0  0  0  0  0  0  0  0  0
   25.6879   44.7171   64.1484 O   0  0  0  0  0  0  0  0  0  0  0  0
   27.5752   44.6831   62.7762 C   0  0  0  0  0  0  0  0  0  0  0  0
   28.4524   44.4466   63.9910 C   0  0  2  0  0  0  0  0  0  0  0  0
   29.7420   45.0657   63.9085 N   0  0  0  0  0  0  0  0  0  0  0  0
   30.0874   46.1897   64.5507 C   0  0  0  0  0  0  0  0  0  0  0  0
   29.2435   46.7597   65.2807 O   0  0  0  0  0  0  0  0  0  0  0  0
   31.3080   46.7505   64.4552 N   0  0  0  0  0  0  0  0  0  0  0  0
   32.2486   46.1713   63.6804 C   0  0  0  0  0  0  0  0  0  0  0  0
   33.4117   46.6790   63.5710 O   0  0  0  0  0  0  0  0  0  0  0  0
   31.9522   45.0098   62.9928 C   0  0  0  0  0  0  0  0  0  0  0  0
   32.9684   44.3483   62.1310 C   0  0  0  0  0  0  0  0  0  0  0  0
   30.6733   44.4797   63.1327 C   0  0  0  0  0  0  0  0  0  0  0  0
  1  2  1  0
  3  2  1  6
  3  4  1  0
  3  5  1  0
  5  6  1  1
  5  7  1  0
  4  8  1  0
  7  8  1  0
  8  9  1  6
  9 10  1  0
 10 11  2  0
 10 12  1  0
 12 13  1  0
 13 14  2  0
 13 15  1  0
 15 16  1  0
  9 17  1  0
 15 17  2  0
M  END
$$$$
