1W2G_THM_B_1210
     RDKit          3D

 17 18  0  0  0  0  0  0  0  0999 V2000
   22.1256   32.9830   47.9139 O   0  0  0  0  0  0  0  0  0  0  0  0
   20.8650   33.4994   48.1205 C   0  0  0  0  0  0  0  0  0  0  0  0
   20.8664   34.9970   47.9762 C   0  0  1  0  0  0  0  0  0  0  0  0
   22.1612   35.4768   48.2223 O   0  0  0  0  0  0  0  0  0  0  0  0
   20.5336   35.3462   46.5482 C   0  0  1  0  0  0  0  0  0  0  0  0
   19.5995   36.3980   46.5165 O   0  0  0  0  0  0  0  0  0  0  0  0
   21.8527   35.9708   46.0841 C   0  0  0  0  0  0  0  0  0  0  0  0
   22.2234   36.5781   47.4237 C   0  0  2  0  0  0  0  0  0  0  0  0
   23.4762   37.2738   47.4220 N   0  0  0  0  0  0  0  0  0  0  0  0
   23.6053   38.6053   47.3489 C   0  0  0  0  0  0  0  0  0  0  0  0
   22.5757   39.3156   47.2762 O   0  0  0  0  0  0  0  0  0  0  0  0
   24.7965   39.2337   47.3492 N   0  0  0  0  0  0  0  0  0  0  0  0
   25.9320   38.5091   47.4261 C   0  0  0  0  0  0  0  0  0  0  0  0
   27.0727   39.0759   47.4284 O   0  0  0  0  0  0  0  0  0  0  0  0
   25.8635   37.1310   47.5038 C   0  0  0  0  0  0  0  0  0  0  0  0
   27.0980   36.3054   47.5895 C   0  0  0  0  0  0  0  0  0  0  0  0
   24.6032   36.5413   47.4991 C   0  0  0  0  0  0  0  0  0  0  0  0
  1  2  1  0
  3  2  1  6
  3  4  1  0
  3  5  1  0
  5  6  1  1
  5  7  1  0
  4  8  1  0
  7  8  1  0
  8  9  1  6
  9 10  1  0
 10 11  2  0
 10 12  1  0
 12 13  1  0
 13 14  2  0
 13 15  1  0
 15 16  1  0
  9 17  1  0
 15 17  2  0
M  END
$$$$
