1W2G_THM_B_1210
     RDKit          3D

 17 18  0  0  0  0  0  0  0  0999 V2000
   49.4168   34.0612   77.4841 O   0  0  0  0  0  0  0  0  0  0  0  0
   49.1853   35.1972   76.7395 C   0  0  0  0  0  0  0  0  0  0  0  0
   47.7116   35.4819   76.6360 C   0  0  1  0  0  0  0  0  0  0  0  0
   47.1410   35.3991   77.9147 O   0  0  0  0  0  0  0  0  0  0  0  0
   47.5245   36.9011   76.1637 C   0  0  1  0  0  0  0  0  0  0  0  0
   46.5327   36.9483   75.1668 O   0  0  0  0  0  0  0  0  0  0  0  0
   46.8796   37.5383   77.3979 C   0  0  0  0  0  0  0  0  0  0  0  0
   46.1230   36.3006   77.8414 C   0  0  2  0  0  0  0  0  0  0  0  0
   45.3649   36.4801   79.0440 N   0  0  0  0  0  0  0  0  0  0  0  0
   44.0438   36.6997   79.0834 C   0  0  0  0  0  0  0  0  0  0  0  0
   43.4020   36.7568   78.0088 O   0  0  0  0  0  0  0  0  0  0  0  0
   43.3557   36.8652   80.2292 N   0  0  0  0  0  0  0  0  0  0  0  0
   44.0056   36.8116   81.4104 C   0  0  0  0  0  0  0  0  0  0  0  0
   43.3810   36.9644   82.5099 O   0  0  0  0  0  0  0  0  0  0  0  0
   45.3691   36.5878   81.4346 C   0  0  0  0  0  0  0  0  0  0  0  0
   46.1129   36.5236   82.7213 C   0  0  0  0  0  0  0  0  0  0  0  0
   46.0230   36.4248   80.2173 C   0  0  0  0  0  0  0  0  0  0  0  0
  1  2  1  0
  3  2  1  1
  3  4  1  0
  3  5  1  0
  5  6  1  6
  5  7  1  0
  4  8  1  0
  7  8  1  0
  8  9  1  1
  9 10  1  0
 10 11  2  0
 10 12  1  0
 12 13  1  0
 13 14  2  0
 13 15  1  0
 15 16  1  0
  9 17  1  0
 15 17  2  0
M  END
$$$$
