7Q5I_I0F_AAA_901
     RDKit          3D

 27 28  0  0  0  0  0  0  0  0999 V2000
   35.1396   32.4538   78.3821 N   0  0  0  0  0  0  0  0  0  0  0  0
   37.7504   30.7551   80.9898 C   0  0  1  0  0  0  0  0  0  0  0  0
   36.6037   31.5982   81.4610 C   0  0  1  0  0  0  0  0  0  0  0  0
   36.8944   32.3591   82.7302 C   0  0  0  0  0  0  0  0  0  0  0  0
   33.8849   33.0130   78.0580 C   0  0  0  0  0  0  0  0  0  0  0  0
   33.5627   33.5892   76.7514 C   0  0  0  0  0  0  0  0  0  0  0  0
   31.9238   35.0303   75.6567 C   0  0  0  0  0  0  0  0  0  0  0  0
   31.2541   37.3532   74.2874 C   0  0  0  0  0  0  0  0  0  0  0  0
   32.9153   35.9475   75.3404 C   0  0  0  0  0  0  0  0  0  0  0  0
   31.9580   39.5612   73.2750 C   0  0  0  0  0  0  0  0  0  0  0  0
   29.5809   38.7845   73.1146 C   0  0  0  0  0  0  0  0  0  0  0  0
   30.9402   38.5462   73.5644 N   0  0  0  0  0  0  0  0  0  0  0  0
   32.5823   37.1118   74.6546 C   0  0  0  0  0  0  0  0  0  0  0  0
   30.2996   36.4153   74.6228 C   0  0  0  0  0  0  0  0  0  0  0  0
   30.6122   35.2463   75.3076 C   0  0  0  0  0  0  0  0  0  0  0  0
   32.2958   33.7941   76.3866 C   0  0  0  0  0  0  0  0  0  0  0  0
   34.6596   33.9336   75.8994 C   0  0  0  0  0  0  0  0  0  0  0  0
   35.5739   34.2289   75.2080 N   0  0  0  0  0  0  0  0  0  0  0  0
   33.0013   32.9979   78.9811 O   0  0  0  0  0  0  0  0  0  0  0  0
   35.4135   31.7110   79.5969 C   0  0  2  0  0  0  0  0  0  0  0  0
   36.3183   32.4718   80.3888 O   0  0  0  0  0  0  0  0  0  0  0  0
   36.9262   33.7282   82.4337 O   0  0  0  0  0  0  0  0  0  0  0  0
   38.0445   29.8267   81.9818 O   0  0  0  0  0  0  0  0  0  0  0  0
   37.3452   30.1161   79.6783 C   0  0  2  0  0  0  0  0  0  0  0  0
   38.0979   30.7343   78.6533 O   0  0  0  0  0  0  0  0  0  0  0  0
   35.8859   30.3204   79.3505 C   0  0  1  0  0  0  0  0  0  0  0  0
   35.0466   29.4338   80.0193 O   0  0  0  0  0  0  0  0  0  0  0  0
  2  3  1  0
  3  4  1  1
  1  5  1  0
  5  6  1  0
  7  9  2  0
  8 12  1  0
 10 12  1  0
 11 12  1  0
  9 13  1  0
  8 13  2  0
  8 14  1  0
  7 15  1  0
 14 15  2  0
  6 16  2  0
  7 16  1  0
  6 17  1  0
 17 18  3  0
  5 19  2  0
 20  1  1  6
  3 21  1  0
 20 21  1  0
  4 22  1  0
  2 23  1  1
  2 24  1  0
 24 25  1  6
 24 26  1  0
 20 26  1  0
 26 27  1  1
M  END
$$$$
