7T2I_E9F_A_1705
     RDKit          3D

 53 57  0  0  0  0  0  0  0  0999 V2000
 -126.9299 -157.8186  118.3381 C   0  0  2  0  0  0  0  0  0  0  0  0
 -128.9223 -158.9627  119.4041 C   0  0  2  0  0  0  0  0  0  0  0  0
 -128.1976 -162.3489  116.9827 C   0  0  0  0  0  0  0  0  0  0  0  0
 -130.1370 -165.0462  118.8324 C   0  0  0  0  0  0  0  0  0  0  0  0
 -130.2245 -165.5110  116.5350 C   0  0  0  0  0  0  0  0  0  0  0  0
 -129.3957 -164.3435  114.8582 C   0  0  0  0  0  0  0  0  0  0  0  0
 -123.8087 -159.2562  116.4119 C   0  0  2  0  0  0  0  0  0  0  0  0
 -125.3340 -161.1447  114.8117 C   0  0  2  0  0  0  0  0  0  0  0  0
 -125.6994 -160.6589  113.4159 C   0  0  1  0  0  0  0  0  0  0  0  0
 -125.4102 -162.1364  113.6597 C   0  0  2  0  0  0  0  0  0  0  0  0
 -126.4526 -161.1805  115.8087 C   0  0  0  0  0  0  0  0  0  0  0  0
 -127.6681 -160.0979  117.5337 C   0  0  0  0  0  0  0  0  0  0  0  0
 -125.7621 -158.1362  119.2797 C   0  0  1  0  0  0  0  0  0  0  0  0
 -127.6235 -156.5039  118.7364 C   0  0  1  0  0  0  0  0  0  0  0  0
 -129.4362 -157.5522  119.7058 C   0  0  2  0  0  0  0  0  0  0  0  0
 -129.0091 -163.5552  117.2522 C   0  0  0  0  0  0  0  0  0  0  0  0
 -129.3665 -163.8911  118.5763 C   0  0  0  0  0  0  0  0  0  0  0  0
 -129.4777 -164.4032  116.2377 C   0  0  0  0  0  0  0  0  0  0  0  0
 -130.0991 -165.4524  114.3964 C   0  0  0  0  0  0  0  0  0  0  0  0
 -127.1869 -162.3509  116.0137 C   0  0  0  0  0  0  0  0  0  0  0  0
 -122.7241 -160.4443  114.2182 N   0  0  0  0  0  0  0  0  0  0  0  0
 -126.7010 -160.0886  116.5769 N   0  0  0  0  0  0  0  0  0  0  0  0
 -127.9019 -158.9266  118.3457 N   0  0  0  0  0  0  0  0  0  0  0  0
 -128.4017 -161.2285  117.7261 N   0  0  0  0  0  0  0  0  0  0  0  0
 -130.5589 -165.8418  117.8063 N   0  0  0  0  0  0  0  0  0  0  0  0
 -130.6052 -166.1649  115.4279 N   0  0  0  0  0  0  0  0  0  0  0  0
 -128.3630 -156.6609  119.9311 O   0  0  0  0  0  0  0  0  0  0  0  0
 -123.1643 -161.8498  116.2357 O   0  0  0  0  0  0  0  0  0  0  0  0
 -123.6964 -160.7172  115.4029 S   0  0  1  0  0  6  0  0  0  0  0  0
 -126.5231 -157.6750  117.3129 H   0  0  0  0  0  0  0  0  0  0  0  0
 -129.7896 -159.5857  119.0963 H   0  0  0  0  0  0  0  0  0  0  0  0
 -128.4793 -159.4034  120.3231 H   0  0  0  0  0  0  0  0  0  0  0  0
 -130.3999 -165.3023  119.8500 H   0  0  0  0  0  0  0  0  0  0  0  0
 -128.9179 -163.5860  114.2521 H   0  0  0  0  0  0  0  0  0  0  0  0
 -124.6789 -159.3430  117.0946 H   0  0  0  0  0  0  0  0  0  0  0  0
 -123.9386 -158.3656  115.7629 H   0  0  0  0  0  0  0  0  0  0  0  0
 -122.8818 -159.1453  117.0113 H   0  0  0  0  0  0  0  0  0  0  0  0
 -126.7758 -160.4465  113.2385 H   0  0  0  0  0  0  0  0  0  0  0  0
 -124.8996 -160.1369  112.8503 H   0  0  0  0  0  0  0  0  0  0  0  0
 -126.3186 -162.7759  113.6299 H   0  0  0  0  0  0  0  0  0  0  0  0
 -124.4384 -162.4765  113.2443 H   0  0  0  0  0  0  0  0  0  0  0  0
 -125.0943 -158.8919  118.8157 H   0  0  0  0  0  0  0  0  0  0  0  0
 -125.1657 -157.2196  119.4742 H   0  0  0  0  0  0  0  0  0  0  0  0
 -126.1348 -158.5364  120.2464 H   0  0  0  0  0  0  0  0  0  0  0  0
 -126.8607 -155.7113  118.8925 H   0  0  0  0  0  0  0  0  0  0  0  0
 -128.2756 -156.1474  117.9057 H   0  0  0  0  0  0  0  0  0  0  0  0
 -130.0605 -157.5907  120.6232 H   0  0  0  0  0  0  0  0  0  0  0  0
 -130.0948 -157.1927  118.8820 H   0  0  0  0  0  0  0  0  0  0  0  0
 -129.0420 -163.2759  119.4065 H   0  0  0  0  0  0  0  0  0  0  0  0
 -130.2456 -165.7112  113.3560 H   0  0  0  0  0  0  0  0  0  0  0  0
 -126.9557 -163.2449  115.4479 H   0  0  0  0  0  0  0  0  0  0  0  0
 -121.8748 -161.0140  114.0975 H   0  0  0  0  0  0  0  0  0  0  0  0
 -131.1889 -167.0286  115.3712 H   0  0  0  0  0  0  0  0  0  0  0  0
  8  9  1  0
  8 10  1  0
  9 10  1  0
  8 11  1  1
  1 13  1  0
  1 14  1  0
  2 15  1  0
  3 16  1  0
 16 17  1  0
  4 17  2  0
  6 18  1  0
  5 18  1  0
 16 18  2  0
  6 19  2  0
  3 20  2  0
 11 20  1  0
 12 22  1  0
 11 22  2  0
  1 23  1  0
  2 23  1  0
 12 23  1  0
 12 24  2  0
  3 24  1  0
  5 25  2  0
  4 25  1  0
 19 26  1  0
  5 26  1  0
 14 27  1  0
 15 27  1  0
 28 29  2  0
 29  7  1  0
 29  8  1  6
 21 29  2  0
  1 30  1  6
  2 31  1  6
  2 32  1  0
  4 33  1  0
  6 34  1  0
  7 35  1  1
  7 36  1  0
  7 37  1  0
  9 38  1  1
  9 39  1  0
 10 40  1  1
 10 41  1  0
 13 42  1  6
 13 43  1  0
 13 44  1  0
 14 45  1  1
 14 46  1  0
 15 47  1  1
 15 48  1  0
 17 49  1  0
 19 50  1  0
 20 51  1  0
 21 52  1  0
 26 53  1  0
M  END
