2BM2_PM2_B_3211
     RDKit          3D

 30 33  0  0  0  0  0  0  0  0999 V2000
   40.1619   75.5086   93.6735 C   0  0  0  0  0  0  0  0  0  0  0  0
   40.2642   75.0534   94.9771 C   0  0  0  0  0  0  0  0  0  0  0  0
   41.2537   75.4045   92.8633 C   0  0  0  0  0  0  0  0  0  0  0  0
   41.4222   74.5008   95.4877 C   0  0  0  0  0  0  0  0  0  0  0  0
   42.4284   74.8501   93.3645 C   0  0  0  0  0  0  0  0  0  0  0  0
   42.5145   74.3975   94.6764 C   0  0  0  0  0  0  0  0  0  0  0  0
   41.5266   74.0030   96.8920 C   0  0  0  0  0  0  0  0  0  0  0  0
   42.6867   73.1374   96.9627 N   0  0  0  0  0  0  0  0  0  0  0  0
   38.9109   76.4246   91.7712 C   0  0  0  0  0  0  0  0  0  0  0  0
   37.5835   76.1548   91.1211 C   0  0  0  0  0  0  0  0  0  0  0  0
   35.2470   77.0529   91.4881 C   0  0  0  0  0  0  0  0  0  0  0  0
   34.2413   77.2556   92.2573 O   0  0  0  0  0  0  0  0  0  0  0  0
   38.8866   76.0846   93.2197 C   0  0  1  0  0  0  0  0  0  0  0  0
   36.4521   76.4668   91.9700 N   0  0  0  0  0  0  0  0  0  0  0  0
   36.4804   76.1865   93.4163 C   0  0  0  0  0  0  0  0  0  0  0  0
   37.6835   75.2490   93.5979 C   0  0  0  0  0  0  0  0  0  0  0  0
   35.0529   77.4662   90.1038 C   0  0  0  0  0  0  0  0  0  0  0  0
   35.2710   76.5236   89.1222 C   0  0  0  0  0  0  0  0  0  0  0  0
   34.6802   78.7189   89.7120 C   0  0  0  0  0  0  0  0  0  0  0  0
   35.1279   76.8008   87.7889 C   0  0  0  0  0  0  0  0  0  0  0  0
   34.5459   78.9681   88.3984 N   0  0  0  0  0  0  0  0  0  0  0  0
   35.3921   75.7112   86.8167 C   0  0  0  0  0  0  0  0  0  0  0  0
   34.7505   78.0753   87.4251 C   0  0  0  0  0  0  0  0  0  0  0  0
   35.4495   76.2214   85.3772 C   0  0  0  0  0  0  0  0  0  0  0  0
   35.5871   75.0563   84.4519 C   0  0  0  0  0  0  0  0  0  0  0  0
   36.6706   74.8788   83.6226 C   0  0  0  0  0  0  0  0  0  0  0  0
   34.5490   74.1175   84.4532 C   0  0  0  0  0  0  0  0  0  0  0  0
   36.7847   73.7982   82.7757 C   0  0  0  0  0  0  0  0  0  0  0  0
   34.6741   73.0432   83.6040 C   0  0  0  0  0  0  0  0  0  0  0  0
   35.7623   72.8676   82.7730 C   0  0  0  0  0  0  0  0  0  0  0  0
  1  2  2  0
  1  3  1  0
  2  4  1  0
  3  5  2  0
  4  6  2  0
  5  6  1  0
  4  7  1  0
  7  8  1  1
  9 10  1  6
 11 12  2  0
 13  1  1  6
  9 13  1  0
 10 14  1  6
 11 14  1  0
 15 14  1  6
 13 16  1  0
 16 15  1  1
 11 17  1  0
 17 18  2  0
 17 19  1  0
 18 20  1  0
 19 21  2  0
 22 20  1  1
 20 23  2  0
 21 23  1  0
 22 24  1  0
 24 25  1  1
 25 26  2  0
 25 27  1  0
 26 28  1  0
 27 29  2  0
 28 30  2  0
 29 30  1  0
M  END
$$$$
