7WQQ_5Z6_A_501
     RDKit          3D

 55 56  0  0  0  0  0  0  0  0999 V2000
   10.7652    4.9097    6.3514 C   0  0  0  0  0  0  0  0  0  0  0  0
    8.0369    5.3062    7.5279 C   0  0  0  0  0  0  0  0  0  0  0  0
    6.7723    5.8584    9.5330 C   0  0  0  0  0  0  0  0  0  0  0  0
    9.1658    5.4404    9.6646 C   0  0  0  0  0  0  0  0  0  0  0  0
   11.5990    4.6041    3.3080 C   0  0  0  0  0  0  0  0  0  0  0  0
   11.9280    4.9513    1.9827 C   0  0  0  0  0  0  0  0  0  0  0  0
   11.0809    5.4760   -0.4037 C   0  0  0  0  0  0  0  0  0  0  0  0
    9.5077    4.6391    1.3431 C   0  0  0  0  0  0  0  0  0  0  0  0
   16.1267    6.9931    3.9131 C   0  0  0  0  0  0  0  0  0  0  0  0
   15.3089    6.7995    2.6128 C   0  0  2  0  0  0  0  0  0  0  0  0
   16.2026    6.0343    1.6117 C   0  0  0  0  0  0  0  0  0  0  0  0
   14.9924    8.2025    2.0491 C   0  0  0  0  0  0  0  0  0  0  0  0
   13.9906    6.0211    2.8268 C   0  0  0  0  0  0  0  0  0  0  0  0
   13.6178    5.6441    4.1324 C   0  0  0  0  0  0  0  0  0  0  0  0
   12.4385    4.9312    4.3815 C   0  0  0  0  0  0  0  0  0  0  0  0
   12.0825    4.5573    5.7738 C   0  0  0  0  0  0  0  0  0  0  0  0
   10.5303    4.8656    7.6709 C   0  0  0  0  0  0  0  0  0  0  0  0
    9.2199    5.1943    8.2840 C   0  0  0  0  0  0  0  0  0  0  0  0
    6.8266    5.6302    8.1484 C   0  0  0  0  0  0  0  0  0  0  0  0
    5.4886    6.2003   10.1845 C   0  0  0  0  0  0  0  0  0  0  0  0
    7.9556    5.7634   10.2848 C   0  0  0  0  0  0  0  0  0  0  0  0
   10.9653    4.5589    0.8385 C   0  0  2  0  0  0  0  0  0  0  0  0
   11.2702    3.1156    0.3789 C   0  0  0  0  0  0  0  0  0  0  0  0
   13.1316    5.6610    1.7622 C   0  0  0  0  0  0  0  0  0  0  0  0
   12.9129    3.9063    6.4664 O   0  0  0  0  0  0  0  0  0  0  0  0
    4.5424    5.3671   10.2081 O   0  0  0  0  0  0  0  0  0  0  0  0
    5.3130    7.4477   10.7782 O   0  0  0  0  0  0  0  0  0  0  0  0
    9.9663    5.1672    5.6712 H   0  0  0  0  0  0  0  0  0  0  0  0
    8.0401    5.1703    6.4553 H   0  0  0  0  0  0  0  0  0  0  0  0
   10.0629    5.3736   10.2685 H   0  0  0  0  0  0  0  0  0  0  0  0
   10.6678    4.0946    3.5087 H   0  0  0  0  0  0  0  0  0  0  0  0
   10.3804    5.1482   -1.2025 H   0  0  0  0  0  0  0  0  0  0  0  0
   10.8211    6.5262   -0.1482 H   0  0  0  0  0  0  0  0  0  0  0  0
   12.1080    5.4414   -0.8274 H   0  0  0  0  0  0  0  0  0  0  0  0
    8.7933    4.4037    0.5245 H   0  0  0  0  0  0  0  0  0  0  0  0
    9.3183    3.9178    2.1652 H   0  0  0  0  0  0  0  0  0  0  0  0
    9.2849    5.6616    1.7180 H   0  0  0  0  0  0  0  0  0  0  0  0
   17.0651    7.5534    3.7091 H   0  0  0  0  0  0  0  0  0  0  0  0
   16.4146    6.0125    4.3503 H   0  0  0  0  0  0  0  0  0  0  0  0
   15.5492    7.5771    4.6622 H   0  0  0  0  0  0  0  0  0  0  0  0
   17.1772    6.5518    1.4769 H   0  0  0  0  0  0  0  0  0  0  0  0
   16.4018    5.0051    1.9811 H   0  0  0  0  0  0  0  0  0  0  0  0
   15.7280    5.9597    0.6112 H   0  0  0  0  0  0  0  0  0  0  0  0
   14.3129    8.7504    2.7373 H   0  0  0  0  0  0  0  0  0  0  0  0
   15.9231    8.7986    1.9289 H   0  0  0  0  0  0  0  0  0  0  0  0
   14.5066    8.1444    1.0530 H   0  0  0  0  0  0  0  0  0  0  0  0
   14.2570    5.8953    4.9681 H   0  0  0  0  0  0  0  0  0  0  0  0
   11.3217    4.5385    8.3355 H   0  0  0  0  0  0  0  0  0  0  0  0
    5.9343    5.7090    7.5400 H   0  0  0  0  0  0  0  0  0  0  0  0
    7.9479    5.9394   11.3532 H   0  0  0  0  0  0  0  0  0  0  0  0
   11.0896    2.3788    1.1890 H   0  0  0  0  0  0  0  0  0  0  0  0
   12.3309    3.0289    0.0584 H   0  0  0  0  0  0  0  0  0  0  0  0
   10.6220    2.8286   -0.4776 H   0  0  0  0  0  0  0  0  0  0  0  0
   13.3986    5.9369    0.7599 H   0  0  0  0  0  0  0  0  0  0  0  0
    4.4382    7.6920   11.2268 H   0  0  0  0  0  0  0  0  0  0  0  0
  5  6  4  0
 10  9  1  1
 10 11  1  0
 10 12  1  0
 10 13  1  0
 13 14  4  0
  5 15  4  0
 14 15  4  0
 15 16  1  0
  1 16  1  0
  1 17  2  3
 17 18  1  0
  4 18  4  0
  2 18  4  0
  2 19  4  0
  3 19  4  0
  3 20  1  0
  4 21  4  0
  3 21  4  0
 22  7  1  6
  8 22  1  0
  6 22  1  0
 22 23  1  0
  6 24  4  0
 13 24  4  0
 16 25  2  0
 20 26  2  0
 20 27  1  0
  1 28  1  0
  2 29  1  0
  4 30  1  0
  5 31  1  0
  7 32  1  0
  7 33  1  0
  7 34  1  0
  8 35  1  0
  8 36  1  0
  8 37  1  0
  9 38  1  0
  9 39  1  0
  9 40  1  0
 11 41  1  0
 11 42  1  0
 11 43  1  0
 12 44  1  0
 12 45  1  0
 12 46  1  0
 14 47  1  0
 17 48  1  0
 19 49  1  0
 21 50  1  0
 23 51  1  0
 23 52  1  0
 23 53  1  0
 24 54  1  0
 27 55  1  0
M  END
