1GPK_HUP_A_1540
     RDKit          3D

 18 20  0  0  0  0  0  0  0  0999 V2000
    5.8937   69.1757   61.7353 C   0  0  0  0  0  0  0  0  0  0  0  0
    6.6492   69.9689   61.1120 O   0  0  0  0  0  0  0  0  0  0  0  0
    6.3981   67.9658   62.2186 N   0  0  0  0  0  0  0  0  0  0  0  0
    4.4850   69.4303   62.0028 C   0  0  0  0  0  0  0  0  0  0  0  0
    3.7222   68.5073   62.6887 C   0  0  0  0  0  0  0  0  0  0  0  0
    4.2614   67.2525   63.1817 C   0  0  0  0  0  0  0  0  0  0  0  0
    5.6477   67.0036   62.9275 C   0  0  0  0  0  0  0  0  0  0  0  0
    6.3801   65.7555   63.3621 C   0  0  0  0  0  0  0  0  0  0  0  0
    5.4729   64.7509   64.2014 C   0  0  1  0  0  0  0  0  0  0  0  0
    5.4758   65.0844   65.7079 C   0  0  0  0  0  0  0  0  0  0  0  0
    3.8278   62.4186   62.8139 C   0  0  0  0  0  0  0  0  0  0  0  0
    3.3400   63.8002   63.1293 C   0  0  0  0  0  0  0  0  0  0  0  0
    4.0124   64.7938   63.6955 C   0  0  0  0  0  0  0  0  0  0  0  0
    3.3832   66.1812   63.9651 C   0  0  2  0  0  0  0  0  0  0  0  0
    1.9740   66.2397   63.4848 N   0  0  0  0  0  0  0  0  0  0  0  0
    3.3885   66.4829   65.4925 C   0  0  0  0  0  0  0  0  0  0  0  0
    4.5272   65.8715   66.2894 C   0  0  0  0  0  0  0  0  0  0  0  0
    4.5044   66.2041   67.7661 C   0  0  0  0  0  0  0  0  0  0  0  0
  1  2  2  0
  1  3  1  0
  1  4  1  0
  4  5  2  0
  5  6  1  0
  3  7  1  0
  6  7  2  0
  7  8  1  0
  9  8  1  6
  9 10  1  0
 11 12  1  0
  9 13  1  0
 12 13  2  0
  6 14  1  0
 13 14  1  0
 14 15  1  6
 14 16  1  0
 10 17  2  0
 16 17  1  0
 17 18  1  0
M  END
