7TXK_LW8_A_601
     RDKit          3D

 15 15  0  0  0  0  0  0  0  0999 V2000
   11.5727   61.3923   65.6165 O   0  0  0  0  0  0  0  0  0  0  0  0
   12.9543   61.5311   65.5546 C   0  0  0  0  0  0  0  0  0  0  0  0
   13.6322   60.5673   65.9982 O   0  0  0  0  0  0  0  0  0  0  0  0
   13.5018   62.7631   64.9895 C   0  0  1  0  0  0  0  0  0  0  0  0
   14.5186   63.3767   65.8114 N   0  0  2  0  0  0  0  0  0  0  0  0
   15.8020   62.8819   65.4054 C   0  0  0  0  0  0  0  0  0  0  0  0
   14.2586   62.9334   67.1783 C   0  0  0  0  0  0  0  0  0  0  0  0
   14.5398   64.7971   65.8316 C   0  0  0  0  0  0  0  0  0  0  0  0
   13.9646   62.6155   63.5496 C   0  0  0  0  0  0  0  0  0  0  0  0
   12.8487   62.5275   62.5815 C   0  0  0  0  0  0  0  0  0  0  0  0
   12.5570   61.5794   61.6735 N   0  0  0  0  0  0  0  0  0  0  0  0
   11.4352   61.9200   61.0109 C   0  0  0  0  0  0  0  0  0  0  0  0
   10.7076   61.0576   59.8127 S   0  0  0  0  0  0  0  0  0  0  0  0
   10.9890   63.0952   61.4850 N   0  0  0  0  0  0  0  0  0  0  0  0
   11.8387   63.4881   62.4486 C   0  0  0  0  0  0  0  0  0  0  0  0
  1  2  1  0
  2  3  2  0
  4  2  1  1
  4  5  1  0
  5  6  1  6
  7  5  1  6
  8  5  1  6
  4  9  1  0
  9 10  1  6
 10 11  1  0
 11 12  1  0
 12 13  2  0
 12 14  1  0
 10 15  2  0
 14 15  1  0
M  CHG  1   5   1
M  END
$$$$
