8G6P_API_A_809
     RDKit          3D

 13 12  0  0  0  0  0  0  0  0999 V2000
  -22.8804   40.7650  -33.0523 C   0  0  0  0  0  0  0  0  0  0  0  0
  -21.9092   39.6289  -33.0232 C   0  0  2  0  0  0  0  0  0  0  0  0
  -21.3607   39.4313  -31.6237 C   0  0  0  0  0  0  0  0  0  0  0  0
  -19.9614   38.8303  -31.6659 C   0  0  0  0  0  0  0  0  0  0  0  0
  -19.4835   38.7354  -30.2653 C   0  0  0  0  0  0  0  0  0  0  0  0
  -18.1822   38.0264  -30.0555 C   0  0  2  0  0  0  0  0  0  0  0  0
  -18.1285   36.6336  -30.4843 C   0  0  0  0  0  0  0  0  0  0  0  0
  -24.0551   40.6134  -32.5773 O   0  0  0  0  0  0  0  0  0  0  0  0
  -22.4483   41.9495  -33.6042 O   0  0  0  0  0  0  0  0  0  0  0  0
  -18.2223   35.6800  -29.6392 O   0  0  0  0  0  0  0  0  0  0  0  0
  -17.9731   36.2544  -31.8300 O   0  0  0  0  0  0  0  0  0  0  0  0
  -20.8225   39.8220  -33.9621 N   0  0  0  0  0  0  0  0  0  0  0  0
  -17.9463   38.0295  -28.6037 N   0  0  0  0  0  0  0  0  0  0  0  0
  1  2  1  0
  2  3  1  0
  3  4  1  0
  4  5  1  0
  5  6  1  0
  6  7  1  0
  1  8  2  0
  1  9  1  0
  7 10  2  0
  7 11  1  0
  2 12  1  6
  6 13  1  1
M  END
$$$$
