
     RDKit          3D

 23 24  0  0  0  0  0  0  0  0999 V2000
    8.5150   19.9290   27.2663 C   0  0  0  0  0  0  0  0  0  0  0  0
    7.7804   19.3952   28.3338 C   0  0  0  0  0  0  0  0  0  0  0  0
    7.6922   20.1019   29.5399 C   0  0  0  0  0  0  0  0  0  0  0  0
    8.3548   21.3291   29.6507 C   0  0  0  0  0  0  0  0  0  0  0  0
    9.0717   21.8674   28.5844 C   0  0  0  0  0  0  0  0  0  0  0  0
    9.1487   21.1702   27.3796 C   0  0  0  0  0  0  0  0  0  0  0  0
    8.3005   22.0130   30.8023 F   0  0  0  0  0  0  0  0  0  0  0  0
    6.9441   19.5426   30.7116 C   0  0  0  0  0  0  0  0  0  0  0  0
    8.6073   19.0257   25.7446 S   0  0  2  0  0  6  0  0  0  0  0  0
    9.7190   17.7983   26.1011 N   0  0  0  0  0  0  0  0  0  0  0  0
   11.1635   18.1643   26.1672 C   0  0  1  0  0  0  0  0  0  0  0  0
   11.4145   18.8504   27.5159 C   0  0  0  0  0  0  0  0  0  0  0  0
   12.2762   19.9274   27.4517 N   0  0  0  0  0  0  0  0  0  0  0  0
   13.6085   19.6445   27.8421 O   0  0  0  0  0  0  0  0  0  0  0  0
   10.8853   18.4998   28.5688 O   0  0  0  0  0  0  0  0  0  0  0  0
    9.1730   19.8669   24.7175 O   0  0  0  0  0  0  0  0  0  0  0  0
    7.3430   18.3477   25.5666 O   0  0  0  0  0  0  0  0  0  0  0  0
   12.0324   16.8897   26.0114 C   0  0  1  0  0  0  0  0  0  0  0  0
   11.7737   16.1930   24.6594 C   0  0  0  0  0  0  0  0  0  0  0  0
   12.7274   15.0236   24.4478 C   0  0  0  0  0  0  0  0  0  0  0  0
   14.0795   15.4592   24.5381 O   0  0  0  0  0  0  0  0  0  0  0  0
   14.3901   15.9841   25.8251 C   0  0  0  0  0  0  0  0  0  0  0  0
   13.5370   17.2107   26.1217 C   0  0  0  0  0  0  0  0  0  0  0  0
  1  2  4  0
  2  3  4  0
  3  4  4  0
  4  5  4  0
  1  6  4  0
  5  6  4  0
  4  7  1  0
  3  8  1  0
  1  9  1  0
  9 10  1  1
 11 10  1  1
 11 12  1  0
 12 13  1  0
 13 14  1  0
 12 15  2  0
  9 16  2  0
  9 17  2  0
 11 18  1  0
 18 19  1  6
 19 20  1  0
 20 21  1  0
 21 22  1  0
 18 23  1  0
 22 23  1  0
M  END
