8DHG_T78_A_403
     RDKit          3D

 54 56  0  0  0  0  0  0  0  0999 V2000
   32.8209  -22.5249   20.5928 C   0  0  0  0  0  0  0  0  0  0  0  0
   33.0951  -21.8874   21.9502 C   0  0  0  0  0  0  0  0  0  0  0  0
   30.7526  -22.4581   22.6192 C   0  0  0  0  0  0  0  0  0  0  0  0
   32.2315  -22.4404   24.2601 C   0  0  0  0  0  0  0  0  0  0  0  0
   28.8301  -23.1019   24.0361 C   0  0  0  0  0  0  0  0  0  0  0  0
   25.7956  -22.8009   22.1549 O   0  0  0  0  0  0  0  0  0  0  0  0
   26.2718  -22.5208   20.8396 C   0  0  2  0  0  0  0  0  0  0  0  0
   27.5583  -21.6977   20.9123 C   0  0  0  0  0  0  0  0  0  0  0  0
   25.1365  -21.7805   20.1411 C   0  0  2  0  0  0  0  0  0  0  0  0
   27.0536  -23.9740   25.3921 C   0  0  0  0  0  0  0  0  0  0  0  0
   28.3850  -23.6686   25.2379 C   0  0  0  0  0  0  0  0  0  0  0  0
   23.0482  -25.1842   21.5036 C   0  0  0  0  0  0  0  0  0  0  0  0
   24.0202  -26.2469   21.0386 C   0  0  0  0  0  0  0  0  0  0  0  0
   22.0498  -24.7607   20.6353 C   0  0  0  0  0  0  0  0  0  0  0  0
   21.1494  -23.7737   21.0174 C   0  0  0  0  0  0  0  0  0  0  0  0
   22.1605  -23.5855   23.0829 C   0  0  0  0  0  0  0  0  0  0  0  0
   32.0552  -22.2550   22.9049 N   0  0  0  0  0  4  0  0  0  0  0  0
   30.2211  -22.3741   21.5095 O   0  0  0  0  0  0  0  0  0  0  0  0
   30.1545  -22.7912   23.7875 N   0  0  0  0  0  4  0  0  0  0  0  0
   31.1173  -22.7613   24.7898 N   0  0  0  0  0  0  0  0  0  0  0  0
   33.4805  -22.3011   25.0864 C   0  0  0  0  0  0  0  0  0  0  0  0
   34.6600  -22.6894   24.3998 O   0  0  0  0  0  0  0  0  0  0  0  0
   27.9539  -22.8392   23.0776 N   0  0  0  0  0  0  0  0  0  0  0  0
   26.6478  -23.0926   23.1809 C   0  0  0  0  0  0  0  0  0  0  0  0
   24.3493  -22.7036   19.4636 F   0  0  0  0  0  0  0  0  0  0  0  0
   25.6877  -20.9039   19.2371 F   0  0  0  0  0  0  0  0  0  0  0  0
   24.3593  -21.1100   21.0663 F   0  0  0  0  0  0  0  0  0  0  0  0
   26.1254  -23.6778   24.3731 C   0  0  0  0  0  0  0  0  0  0  0  0
   29.2048  -23.9502   26.2576 F   0  0  0  0  0  0  0  0  0  0  0  0
   24.7002  -24.0475   24.5669 C   0  0  0  0  0  0  0  0  0  0  0  0
   24.1107  -23.6363   25.5539 O   0  0  0  0  0  0  0  0  0  0  0  0
   24.0922  -24.9242   23.7090 N   0  0  0  0  0  0  0  0  0  0  0  0
   23.0986  -24.5854   22.7817 C   0  0  0  0  0  0  0  0  0  0  0  0
   21.2277  -23.2106   22.2157 N   0  0  0  0  0  0  0  0  0  0  0  0
   22.2070  -22.8249   24.6210 Cl  0  0  0  0  0  0  0  0  0  0  0  0
   33.5917  -22.2457   19.9053 H   0  0  0  0  0  0  0  0  0  0  0  0
   32.8035  -23.5898   20.6958 H   0  0  0  0  0  0  0  0  0  0  0  0
   31.8749  -22.1867   20.2245 H   0  0  0  0  0  0  0  0  0  0  0  0
   34.0428  -22.2261   22.3136 H   0  0  0  0  0  0  0  0  0  0  0  0
   33.1028  -20.8232   21.8384 H   0  0  0  0  0  0  0  0  0  0  0  0
   26.5250  -23.4051   20.2931 H   0  0  0  0  0  0  0  0  0  0  0  0
   27.3723  -20.7921   21.4509 H   0  0  0  0  0  0  0  0  0  0  0  0
   28.3153  -22.2625   21.4150 H   0  0  0  0  0  0  0  0  0  0  0  0
   27.8876  -21.4623   19.9218 H   0  0  0  0  0  0  0  0  0  0  0  0
   26.7302  -24.4245   26.2624 H   0  0  0  0  0  0  0  0  0  0  0  0
   23.7762  -26.5406   20.0391 H   0  0  0  0  0  0  0  0  0  0  0  0
   25.0155  -25.8549   21.0623 H   0  0  0  0  0  0  0  0  0  0  0  0
   23.9561  -27.0966   21.6858 H   0  0  0  0  0  0  0  0  0  0  0  0
   21.9761  -25.1835   19.6967 H   0  0  0  0  0  0  0  0  0  0  0  0
   20.4110  -23.4753   20.3611 H   0  0  0  0  0  0  0  0  0  0  0  0
   33.5806  -21.2767   25.3787 H   0  0  0  0  0  0  0  0  0  0  0  0
   33.3762  -22.9548   25.9270 H   0  0  0  0  0  0  0  0  0  0  0  0
   34.7882  -22.1164   23.6278 H   0  0  0  0  0  0  0  0  0  0  0  0
   24.3755  -25.8663   23.7468 H   0  0  0  0  0  0  0  0  0  0  0  0
  1  2  1  0
  6  7  1  0
  7  8  1  0
  7  9  1  0
 10 11  4  0
  5 11  4  0
 12 13  1  0
 12 14  4  0
 14 15  4  0
  3 17  4  0
  2 17  1  0
  4 17  4  0
  3 18  2  0
  3 19  4  0
  5 19  1  0
 19 20  4  0
  4 20  4  0
  4 21  1  0
 21 22  1  0
  5 23  4  0
 23 24  4  0
  6 24  1  0
  9 25  1  1
  9 26  1  0
  9 27  1  0
 10 28  4  0
 24 28  4  0
 11 29  1  0
 28 30  1  0
 30 31  2  0
 30 32  1  0
 12 33  4  0
 32 33  1  0
 16 33  4  0
 15 34  4  0
 16 34  4  0
 16 35  1  0
  1 36  1  0
  1 37  1  0
  1 38  1  0
  2 39  1  0
  2 40  1  0
  7 41  1  1
  8 42  1  0
  8 43  1  0
  8 44  1  0
 10 45  1  0
 13 46  1  0
 13 47  1  0
 13 48  1  0
 14 49  1  0
 15 50  1  0
 21 51  1  0
 21 52  1  0
 22 53  1  0
 32 54  1  0
M  CHG  2  17   1  19   1
M  END
