6VS3_R6V_B_1201
     RDKit          3D

 36 41  0  0  0  0  0  0  0  0999 V2000
   55.0790  -15.2528   10.2577 C   0  0  0  0  0  0  0  0  0  0  0  0
   55.0108  -17.5660    9.0065 C   0  0  0  0  0  0  0  0  0  0  0  0
   54.5503  -19.6225    8.0556 C   0  0  0  0  0  0  0  0  0  0  0  0
   51.9549  -19.6216    5.7100 C   0  0  0  0  0  0  0  0  0  0  0  0
   50.5965  -19.4016    5.3681 C   0  0  0  0  0  0  0  0  0  0  0  0
   49.5873  -19.8377    6.2427 C   0  0  0  0  0  0  0  0  0  0  0  0
   48.1741  -18.8976    4.7160 C   0  0  0  0  0  0  0  0  0  0  0  0
   47.1941  -19.0630    7.0520 C   0  0  0  0  0  0  0  0  0  0  0  0
   53.9987  -14.8639   12.9729 C   0  0  0  0  0  0  0  0  0  0  0  0
   53.8282  -13.3723   12.6497 C   0  0  0  0  0  0  0  0  0  0  0  0
   54.4881  -13.0757   11.2786 C   0  0  2  0  0  0  0  0  0  0  0  0
   53.9193  -11.7718   10.6481 C   0  0  2  0  0  0  0  0  0  0  0  0
   54.3983  -11.5990    9.3521 C   0  0  0  0  0  0  0  0  0  0  0  0
   55.5567  -10.4910    9.4532 C   0  0  0  0  0  0  0  0  0  0  0  0
   55.2846   -9.7034   10.8279 C   0  0  0  0  0  0  0  0  0  0  0  0
   54.4640  -10.5156   11.5983 C   0  0  0  0  0  0  0  0  0  0  0  0
   53.1510  -15.7083    9.2099 C   0  0  0  0  0  0  0  0  0  0  0  0
   54.4557  -16.2047    9.4409 C   0  0  0  0  0  0  0  0  0  0  0  0
   52.2803  -20.2655    6.9198 C   0  0  0  0  0  0  0  0  0  0  0  0
   48.0712  -19.6622    5.9889 C   0  0  2  0  0  0  0  0  0  0  0  0
   46.8533  -18.3011    4.2228 C   0  0  0  0  0  0  0  0  0  0  0  0
   46.0439  -18.2184    6.5228 C   0  0  0  0  0  0  0  0  0  0  0  0
   49.9395  -20.4900    7.4643 C   0  0  0  0  0  0  0  0  0  0  0  0
   51.2553  -20.7027    7.7966 C   0  0  0  0  0  0  0  0  0  0  0  0
   56.6876  -19.2958    8.9529 C   0  0  0  0  0  0  0  0  0  0  0  0
   56.3410  -18.0241    9.3271 C   0  0  0  0  0  0  0  0  0  0  0  0
   57.5055  -17.4849    9.9549 C   0  0  0  0  0  0  0  0  0  0  0  0
   58.5054  -18.4686    9.9101 C   0  0  0  0  0  0  0  0  0  0  0  0
   54.1668  -15.9895   13.0757 N   0  0  0  0  0  0  0  0  0  0  0  0
   54.2102  -14.2762   10.4476 N   0  0  0  0  0  0  0  0  0  0  0  0
   53.0346  -14.5434    9.8438 N   0  0  0  0  0  0  0  0  0  0  0  0
   54.1538  -18.4084    8.4162 N   0  0  0  0  0  0  0  0  0  0  0  0
   53.6340  -20.5314    7.3886 N   0  0  0  0  0  0  0  0  0  0  0  0
   45.7198  -18.5955    5.1190 N   0  0  0  0  0  0  0  0  0  0  0  0
   55.7586  -20.0846    8.2983 N   0  0  0  0  0  0  0  0  0  0  0  0
   58.0090  -19.5356    9.2998 N   0  0  0  0  0  0  0  0  0  0  0  0
  4  5  2  0
  5  6  1  0
  9 10  1  0
 11 10  1  1
 11 12  1  0
 12 13  1  6
 13 14  1  0
 14 15  1  0
 15 16  1  0
 12 16  1  0
 17 18  1  0
  1 18  2  0
  2 18  1  0
  4 19  1  0
  8 20  1  0
 20  6  1  1
  7 20  1  0
  7 21  1  0
  8 22  1  0
  6 23  2  0
 23 24  1  0
 19 24  2  0
  2 26  2  0
 25 26  1  0
 26 27  1  0
 27 28  2  0
  9 29  3  0
 11 30  1  0
  1 30  1  0
 30 31  1  0
 17 31  2  0
  2 32  1  0
  3 32  2  0
 19 33  1  0
  3 33  1  0
 22 34  1  0
 21 34  1  0
  3 35  1  0
 25 35  2  0
 28 36  1  0
 25 36  1  0
M  END
