7Q27_8KC_A_707
     RDKit          3D

 35 37  0  0  0  0  0  0  0  0999 V2000
   -8.4192   -7.8231   22.8489 C   0  0  0  0  0  0  0  0  0  0  0  0
   -9.2997   -9.0225   22.6419 C   0  0  0  0  0  0  0  0  0  0  0  0
  -10.3238   -9.0476   23.7614 C   0  0  0  0  0  0  0  0  0  0  0  0
  -11.1684  -10.2975   23.6779 C   0  0  0  0  0  0  0  0  0  0  0  0
  -12.2322  -10.2907   24.8100 C   0  0  1  0  0  0  0  0  0  0  0  0
  -16.3654   -4.9444   25.1866 C   0  0  0  0  0  0  0  0  0  0  0  0
  -16.2625   -5.3396   23.8487 C   0  0  0  0  0  0  0  0  0  0  0  0
  -17.0327   -4.7379   22.8713 C   0  0  0  0  0  0  0  0  0  0  0  0
  -17.9355   -3.7187   23.1908 C   0  0  0  0  0  0  0  0  0  0  0  0
  -18.0373   -3.3275   24.5134 C   0  0  0  0  0  0  0  0  0  0  0  0
  -13.1754   -9.1474   24.5113 C   0  0  0  0  0  0  0  0  0  0  0  0
  -13.6970  -13.5889   25.7025 C   0  0  0  0  0  0  0  0  0  0  0  0
  -15.0969  -13.4118   25.2129 C   0  0  0  0  0  0  0  0  0  0  0  0
  -15.7679  -14.7078   24.9148 C   0  0  0  0  0  0  0  0  0  0  0  0
  -14.9944  -15.8514   24.9356 C   0  0  0  0  0  0  0  0  0  0  0  0
  -15.6195  -17.0544   24.6587 C   0  0  0  0  0  0  0  0  0  0  0  0
  -13.8173   -6.0716   24.1409 C   0  0  0  0  0  0  0  0  0  0  0  0
  -14.3581   -7.0273   25.1109 C   0  0  2  0  0  0  0  0  0  0  0  0
  -14.7206   -6.4133   26.4458 C   0  0  0  0  0  0  0  0  0  0  0  0
  -15.7342   -5.3614   26.3434 C   0  0  0  0  0  0  0  0  0  0  0  0
  -16.2722   -4.5758   27.3617 C   0  0  0  0  0  0  0  0  0  0  0  0
  -17.2580   -3.9364   25.5016 C   0  0  0  0  0  0  0  0  0  0  0  0
  -12.9825  -12.2809   25.9825 C   0  0  1  0  0  0  0  0  0  0  0  0
  -11.6431  -12.5372   26.5932 C   0  0  0  0  0  0  0  0  0  0  0  0
  -16.9693  -17.0875   24.3744 C   0  0  0  0  0  0  0  0  0  0  0  0
  -17.7595  -15.9621   24.3478 C   0  0  0  0  0  0  0  0  0  0  0  0
  -17.1315  -14.7460   24.6269 C   0  0  0  0  0  0  0  0  0  0  0  0
  -17.1806   -3.7330   26.8297 N   0  0  0  0  0  0  0  0  0  0  0  0
  -13.3950   -8.0896   25.4253 N   0  0  0  0  0  0  0  0  0  0  0  0
  -12.8526  -11.5695   24.7333 N   0  0  0  0  0  0  0  0  0  0  0  0
  -12.6000   -5.7026   24.1559 O   0  0  0  0  0  0  0  0  0  0  0  0
  -14.6522   -5.5528   23.1782 O   0  0  0  0  0  0  0  0  0  0  0  0
  -10.6565  -12.9559   25.9393 O   0  0  0  0  0  0  0  0  0  0  0  0
  -11.5233  -12.2844   27.9660 O   0  0  0  0  0  0  0  0  0  0  0  0
  -13.7984   -9.1346   23.3992 O   0  0  0  0  0  0  0  0  0  0  0  0
  1  2  1  0
  2  3  1  0
  3  4  1  0
  5  4  1  6
  6  7  2  0
  7  8  1  0
  8  9  2  0
  9 10  1  0
  5 11  1  0
 12 13  1  0
 13 14  1  0
 14 15  2  0
 15 16  1  0
 17 18  1  0
 18 19  1  1
  6 20  1  0
 19 20  1  0
 20 21  2  0
 10 22  2  0
  6 22  1  0
 23 12  1  6
 23 24  1  0
 16 25  2  0
 25 26  1  0
 26 27  2  0
 14 27  1  0
 22 28  1  0
 21 28  1  0
 11 29  1  0
 18 29  1  0
  5 30  1  0
 23 30  1  0
 17 31  2  0
 17 32  1  0
 24 33  2  0
 24 34  1  0
 11 35  2  0
M  END
$$$$
