7AKL_RK5_A_501
     RDKit          3D

 19 21  0  0  0  0  0  0  0  0999 V2000
   42.8096    6.9673   12.5882 C   0  0  0  0  0  0  0  0  0  0  0  0
   43.1279    5.8190   13.4852 C   0  0  0  0  0  0  0  0  0  0  0  0
   43.5477    5.8996   14.8116 C   0  0  0  0  0  0  0  0  0  0  0  0
   43.7599    7.1406   15.5901 C   0  0  0  0  0  0  0  0  0  0  0  0
   43.7370    4.6268   15.2925 C   0  0  0  0  0  0  0  0  0  0  0  0
   44.1342    4.0573   16.4902 C   0  0  0  0  0  0  0  0  0  0  0  0
   44.2295    2.6865   16.6669 C   0  0  0  0  0  0  0  0  0  0  0  0
   43.9088    1.8948   15.5877 C   0  0  0  0  0  0  0  0  0  0  0  0
   43.5057    2.4076   14.3667 C   0  0  0  0  0  0  0  0  0  0  0  0
   43.4177    3.7951   14.2145 C   0  0  0  0  0  0  0  0  0  0  0  0
   43.0694    4.5297   13.1857 O   0  0  0  0  0  0  0  0  0  0  0  0
   44.6517    2.1257   17.9447 C   0  0  0  0  0  0  0  0  0  0  0  0
   44.6976    0.7424   18.0893 C   0  0  0  0  0  0  0  0  0  0  0  0
   45.0946    0.1605   19.2906 C   0  0  0  0  0  0  0  0  0  0  0  0
   45.1215   -1.2491   19.3765 N   0  0  0  0  0  0  0  0  0  0  0  0
   45.4416    0.9401   20.3346 N   0  0  0  0  0  0  0  0  0  0  0  0
   45.4090    2.2962   20.2303 C   0  0  0  0  0  0  0  0  0  0  0  0
   45.7818    3.0727   21.3512 N   0  0  0  0  0  0  0  0  0  0  0  0
   45.0123    2.8804   19.0302 C   0  0  0  0  0  0  0  0  0  0  0  0
  1  2  1  0
  2  3  2  0
  3  4  1  0
  3  5  1  0
  5  6  1  0
  6  7  2  0
  7  8  1  0
  8  9  2  0
  5 10  2  0
  9 10  1  0
  2 11  1  0
 10 11  1  0
  7 12  1  0
 12 13  2  0
 13 14  1  0
 14 15  1  0
 14 16  2  0
 16 17  1  0
 17 18  1  0
 17 19  2  0
 12 19  1  0
M  END
$$$$
