@<TRIPOS>MOLECULE
1XOQ_ROF_B_501
 40 42 0 0 0
SMALL
GASTEIGER

@<TRIPOS>ATOM
      1 O           1.4197    1.9905    2.2113 O.2     1  UNL1       -0.2698
      2 C          -3.5350   -3.4618   -2.7416 C.3     1  UNL1       -0.0468
      3 C          -2.2174   -4.1916   -2.9584 C.3     1  UNL1       -0.0468
      4 C          -2.2886   -2.6822   -3.1306 C.3     1  UNL1       -0.0068
      5 C           0.7154    1.0540    1.7427 C.2     1  UNL1        0.2484
      6 C           1.1440    0.3698    0.4990 C.ar    1  UNL1        0.0407
      7 C           2.4826    0.4397    0.0830 C.ar    1  UNL1       -0.0459
      8 C           2.8965   -0.1966   -1.0881 C.ar    1  UNL1       -0.0154
      9 C           1.9754   -0.9120   -1.8748 C.ar    1  UNL1        0.1683
     10 O           2.3529   -1.5684   -3.0579 O.3     1  UNL1       -0.4305
     11 C           3.6677   -1.5671   -3.6067 C.3     1  UNL1        0.3894
     12 F           3.6933   -2.3861   -4.7188 F       1  UNL1       -0.1663
     13 F           4.0199   -0.2842   -3.9854 F       1  UNL1       -0.1663
     14 C           0.6323   -0.9802   -1.4762 C.ar    1  UNL1        0.1628
     15 O          -0.2646   -1.6959   -2.2854 O.3     1  UNL1       -0.4880
     16 C          -1.6515   -1.8642   -2.0065 C.3     1  UNL1        0.0926
     17 C           0.2213   -0.3357   -0.2926 C.ar    1  UNL1       -0.0042
     18 N          -0.4757    0.6484    2.4362 N.am    1  UNL1       -0.2790
     19 C          -1.0415    1.4251    3.5028 C.ar    1  UNL1        0.0736
     20 C          -1.4735    2.7483    3.2844 C.ar    1  UNL1        0.0816
     21 CL         -1.4045    3.4969    1.6936 Cl      1  UNL1       -0.0800
     22 C          -2.0253    3.4712    4.3464 C.ar    1  UNL1        0.0478
     23 N          -2.1533    2.8985    5.5715 N.ar    1  UNL1       -0.2602
     24 C          -1.7600    1.6198    5.8063 C.ar    1  UNL1        0.0478
     25 C          -1.2035    0.8545    4.7776 C.ar    1  UNL1        0.0816
     26 CL         -0.6870   -0.7920    5.1170 Cl      1  UNL1       -0.0800
     27 H          -4.2664   -3.6019   -3.5653 H       1  UNL1        0.0269
     28 H          -3.8447   -3.3966   -1.6764 H       1  UNL1        0.0269
     29 H          -1.7435   -4.5575   -2.0223 H       1  UNL1        0.0269
     30 H          -2.1701   -4.7611   -3.9105 H       1  UNL1        0.0269
     31 H          -2.2598   -2.3143   -4.1785 H       1  UNL1        0.0334
     32 H           3.2153    0.9792    0.6706 H       1  UNL1        0.0626
     33 H           3.9376   -0.1269   -1.3709 H       1  UNL1        0.0655
     34 H           4.3946   -1.9561   -2.8628 H       1  UNL1        0.1520
     35 H          -2.1474   -0.8707   -1.9755 H       1  UNL1        0.0699
     36 H          -1.7741   -2.3595   -1.0174 H       1  UNL1        0.0699
     37 H          -0.8184   -0.3639   -0.0003 H       1  UNL1        0.0663
     38 H          -0.8306   -0.3241    2.2970 H       1  UNL1        0.1552
     39 H          -2.3645    4.4876    4.1959 H       1  UNL1        0.0845
     40 H          -1.8799    1.1986    6.7958 H       1  UNL1        0.0845
@<TRIPOS>BOND
     1     2     3    1
     2     2     4    1
     3     3     4    1
     4     1     5    2
     5     5     6    1
     6     6     7   ar
     7     7     8   ar
     8     8     9   ar
     9     9    10    1
    10    10    11    1
    11    11    12    1
    12    11    13    1
    13     9    14   ar
    14    14    15    1
    15     4    16    1
    16    15    16    1
    17     6    17   ar
    18    14    17   ar
    19     5    18   am
    20    18    19    1
    21    19    20   ar
    22    20    21    1
    23    20    22   ar
    24    22    23   ar
    25    23    24   ar
    26    19    25   ar
    27    24    25   ar
    28    25    26    1
    29     2    27    1
    30     2    28    1
    31     3    29    1
    32     3    30    1
    33     4    31    1
    34     7    32    1
    35     8    33    1
    36    11    34    1
    37    16    35    1
    38    16    36    1
    39    17    37    1
    40    18    38    1
    41    22    39    1
    42    24    40    1
