@<TRIPOS>MOLECULE
1XOQ_ROF_B_501
 40 42 0 0 0
SMALL
GASTEIGER

@<TRIPOS>ATOM
      1 O          22.6470   20.9330   95.3140 O.2     1  UNL1       -0.2698
      2 C          25.6930   16.3610   99.7960 C.3     1  UNL1       -0.0468
      3 C          26.8180   16.6540   98.7740 C.3     1  UNL1       -0.0468
      4 C          25.8470   17.6630   99.2810 C.3     1  UNL1       -0.0068
      5 C          21.9140   21.5700   96.0870 C.2     1  UNL1        0.2484
      6 C          22.1420   21.4560   97.5460 C.ar    1  UNL1        0.0407
      7 C          21.4590   22.2270   98.4930 C.ar    1  UNL1       -0.0459
      8 C          21.7260   22.0640   99.8580 C.ar    1  UNL1       -0.0154
      9 C          22.6740   21.1260  100.3060 C.ar    1  UNL1        0.1683
     10 O          22.9880   20.9160  101.6330 O.3     1  UNL1       -0.4305
     11 C          22.5860   21.7950  102.6720 C.3     1  UNL1        0.3894
     12 F          21.2650   21.7020  102.7720 F       1  UNL1       -0.1663
     13 F          22.9860   23.0410  102.3750 F       1  UNL1       -0.1663
     14 C          23.3440   20.3430   99.3700 C.ar    1  UNL1        0.1628
     15 O          24.2750   19.4250   99.8160 O.3     1  UNL1       -0.4880
     16 C          25.0500   18.8290   98.7750 C.3     1  UNL1        0.0926
     17 C          23.0780   20.5180   97.9980 C.ar    1  UNL1       -0.0042
     18 N          20.9540   22.3430   95.5880 N.am    1  UNL1       -0.2790
     19 C          20.7150   22.4370   94.1990 C.ar    1  UNL1        0.0736
     20 C          20.8810   23.6610   93.5280 C.ar    1  UNL1        0.0816
     21 CL         21.4430   25.0540   94.3920 Cl      1  UNL1       -0.0800
     22 C          20.6110   23.7170   92.1620 C.ar    1  UNL1        0.0478
     23 N          20.1950   22.6330   91.4840 N.ar    1  UNL1       -0.2602
     24 C          20.0260   21.4460   92.0890 C.ar    1  UNL1        0.0478
     25 C          20.2670   21.3230   93.4660 C.ar    1  UNL1        0.0816
     26 CL         19.9900   19.7940   94.2420 Cl      1  UNL1       -0.0800
     27 H          25.9387   16.1580  100.8174 H       1  UNL1        0.0269
     28 H          24.8855   15.6610   99.8500 H       1  UNL1        0.0269
     29 H          26.7543   16.2891   97.7702 H       1  UNL1        0.0269
     30 H          27.8814   16.5452   98.7278 H       1  UNL1        0.0269
     31 H          25.8331   18.6636   99.6597 H       1  UNL1        0.0334
     32 H          20.7567   22.9175   98.1848 H       1  UNL1        0.0626
     33 H          21.2189   22.6415  100.5467 H       1  UNL1        0.0655
     34 H          23.0284   21.5391  103.6120 H       1  UNL1        0.1520
     35 H          24.3921   18.4910   98.0018 H       1  UNL1        0.0699
     36 H          25.7315   19.5643   98.4011 H       1  UNL1        0.0699
     37 H          23.5853   19.9408   97.3092 H       1  UNL1        0.0663
     38 H          20.3928   22.8656   96.2054 H       1  UNL1        0.1552
     39 H          20.7330   24.6102   91.6597 H       1  UNL1        0.0845
     40 H          19.7195   20.6260   91.5424 H       1  UNL1        0.0845
@<TRIPOS>BOND
     1     2     3    1
     2     2     4    1
     3     3     4    1
     4     1     5    2
     5     5     6    1
     6     6     7   ar
     7     7     8   ar
     8     8     9   ar
     9     9    10    1
    10    10    11    1
    11    11    12    1
    12    11    13    1
    13     9    14   ar
    14    14    15    1
    15     4    16    1
    16    15    16    1
    17     6    17   ar
    18    14    17   ar
    19     5    18   am
    20    18    19    1
    21    19    20   ar
    22    20    21    1
    23    20    22   ar
    24    22    23   ar
    25    23    24   ar
    26    19    25   ar
    27    24    25   ar
    28    25    26    1
    29     2    27    1
    30     2    28    1
    31     3    29    1
    32     3    30    1
    33     4    31    1
    34     7    32    1
    35     8    33    1
    36    11    34    1
    37    16    35    1
    38    16    36    1
    39    17    37    1
    40    18    38    1
    41    22    39    1
    42    24    40    1
