7OZC_G6S_AAA_601
     RDKit          3D

 16 16  0  0  0  0  0  0  0  0999 V2000
   11.2332   -0.2324   16.9044 C   0  0  2  0  0  0  0  0  0  0  0  0
   10.9186    1.2483   17.2350 C   0  0  1  0  0  0  0  0  0  0  0  0
   11.6591    1.6819   18.5160 C   0  0  2  0  0  0  0  0  0  0  0  0
   11.3878    0.7317   19.6985 C   0  0  2  0  0  0  0  0  0  0  0  0
   11.7390   -0.6937   19.2019 C   0  0  1  0  0  0  0  0  0  0  0  0
   11.5367   -1.7372   20.2740 C   0  0  0  0  0  0  0  0  0  0  0  0
   10.3724   -0.6693   15.8671 O   0  0  0  0  0  0  0  0  0  0  0  0
   11.2855    2.0689   16.1432 O   0  0  0  0  0  0  0  0  0  0  0  0
   10.0304    0.7596   20.2532 O   0  0  0  0  0  0  0  0  0  0  0  0
   11.0099   -1.0657   18.0552 O   0  0  0  0  0  0  0  0  0  0  0  0
   12.7534   -2.4538   20.5558 O   0  0  0  0  0  0  0  0  0  0  0  0
   12.8196   -3.3134   21.8658 S   0  0  1  0  0  0  0  0  0  0  0  0
   11.8906   -4.4391   21.6454 O   0  0  0  0  0  0  0  0  0  0  0  0
   14.2157   -3.7305   21.8607 O   0  0  0  0  0  0  0  0  0  0  0  0
   12.4381   -2.4731   23.0293 O   0  0  0  0  0  0  0  0  0  0  0  0
   11.3104    3.0275   18.8843 O   0  0  0  0  0  0  0  0  0  0  0  0
  1  2  1  0
  2  3  1  0
  3  4  1  0
  4  5  1  0
  5  6  1  1
  1  7  1  6
  2  8  1  6
  4  9  1  6
  1 10  1  0
  5 10  1  0
  6 11  1  0
 11 12  1  0
 12 13  2  0
 12 14  2  0
 12 15  1  1
  3 16  1  1
M  END
