7OEO_V9Z_AAA_501
     RDKit          3D

 62 64  0  0  0  0  0  0  0  0999 V2000
  -16.9895   -8.9797  -21.5878 N   0  0  0  0  0  0  0  0  0  0  0  0
  -17.8260   -9.5518  -22.6603 C   0  0  2  0  0  0  0  0  0  0  0  0
  -17.3794  -12.7354  -26.4634 C   0  0  0  0  0  0  0  0  0  0  0  0
  -15.9335   -8.3806  -16.9817 C   0  0  2  0  0  0  0  0  0  0  0  0
  -15.7185   -9.1440  -18.2072 N   0  0  0  0  0  0  0  0  0  0  0  0
  -16.7693   -9.3380  -19.1739 C   0  0  0  0  0  0  0  0  0  0  0  0
  -17.9748   -9.1406  -18.8495 O   0  0  0  0  0  0  0  0  0  0  0  0
  -16.4472   -9.8601  -20.5458 C   0  0  1  0  0  0  0  0  0  0  0  0
  -16.9897   -9.9178  -23.9127 C   0  0  1  0  0  0  0  0  0  0  0  0
  -17.6159  -11.0342  -24.7344 C   0  0  0  0  0  0  0  0  0  0  0  0
  -16.8194  -11.7406  -25.6568 C   0  0  0  0  0  0  0  0  0  0  0  0
  -18.7415  -13.0323  -26.3662 C   0  0  0  0  0  0  0  0  0  0  0  0
  -19.5480  -12.3313  -25.4660 C   0  0  0  0  0  0  0  0  0  0  0  0
  -18.9938  -11.3348  -24.6563 C   0  0  0  0  0  0  0  0  0  0  0  0
  -16.7083   -8.7214  -24.8066 C   0  0  0  0  0  0  0  0  0  0  0  0
  -15.4610   -8.6072  -25.4507 C   0  0  0  0  0  0  0  0  0  0  0  0
  -15.1954   -7.5258  -26.2956 C   0  0  0  0  0  0  0  0  0  0  0  0
  -16.1709   -6.5497  -26.5124 C   0  0  0  0  0  0  0  0  0  0  0  0
  -17.4146   -6.6510  -25.8834 C   0  0  0  0  0  0  0  0  0  0  0  0
  -17.6870   -7.7311  -25.0390 C   0  0  0  0  0  0  0  0  0  0  0  0
  -16.6342   -7.5832  -21.5711 C   0  0  0  0  0  0  0  0  0  0  0  0
  -15.4211   -7.2558  -21.6791 O   0  0  0  0  0  0  0  0  0  0  0  0
  -17.6567   -6.5241  -21.4179 C   0  0  0  0  0  0  0  0  0  0  0  0
  -18.7988   -6.7400  -20.6341 C   0  0  0  0  0  0  0  0  0  0  0  0
  -19.7838   -5.7488  -20.5138 C   0  0  0  0  0  0  0  0  0  0  0  0
  -21.0125   -6.0299  -19.6954 C   0  0  1  0  0  0  0  0  0  0  0  0
  -19.6288   -4.5273  -21.2000 C   0  0  0  0  0  0  0  0  0  0  0  0
  -20.6297   -3.5540  -21.1489 O   0  0  0  0  0  0  0  0  0  0  0  0
  -21.2389   -3.0573  -22.3319 C   0  0  1  0  0  0  0  0  0  0  0  0
  -18.4526   -4.2768  -21.9309 C   0  0  0  0  0  0  0  0  0  0  0  0
  -18.2739   -2.9789  -22.6689 C   0  0  1  0  0  0  0  0  0  0  0  0
  -17.4771   -5.2790  -22.0387 C   0  0  0  0  0  0  0  0  0  0  0  0
  -18.6477   -8.8566  -22.9166 H   0  0  0  0  0  0  0  0  0  0  0  0
  -18.3152  -10.4779  -22.2854 H   0  0  0  0  0  0  0  0  0  0  0  0
  -16.7561  -13.2746  -27.1671 H   0  0  0  0  0  0  0  0  0  0  0  0
  -16.1684   -9.0760  -16.1432 H   0  0  0  0  0  0  0  0  0  0  0  0
  -16.7754   -7.6674  -17.1293 H   0  0  0  0  0  0  0  0  0  0  0  0
  -15.0139   -7.8035  -16.7249 H   0  0  0  0  0  0  0  0  0  0  0  0
  -14.7808   -9.5807  -18.3664 H   0  0  0  0  0  0  0  0  0  0  0  0
  -16.8686  -10.8846  -20.6457 H   0  0  0  0  0  0  0  0  0  0  0  0
  -15.3471   -9.9522  -20.6744 H   0  0  0  0  0  0  0  0  0  0  0  0
  -16.0239  -10.3072  -23.5202 H   0  0  0  0  0  0  0  0  0  0  0  0
  -15.7610  -11.5202  -25.7553 H   0  0  0  0  0  0  0  0  0  0  0  0
  -19.1717  -13.8046  -26.9910 H   0  0  0  0  0  0  0  0  0  0  0  0
  -20.6048  -12.5609  -25.3972 H   0  0  0  0  0  0  0  0  0  0  0  0
  -19.6412  -10.8052  -23.9712 H   0  0  0  0  0  0  0  0  0  0  0  0
  -14.6908   -9.3525  -25.2978 H   0  0  0  0  0  0  0  0  0  0  0  0
  -14.2318   -7.4417  -26.7818 H   0  0  0  0  0  0  0  0  0  0  0  0
  -15.9609   -5.7124  -27.1641 H   0  0  0  0  0  0  0  0  0  0  0  0
  -18.1664   -5.8888  -26.0468 H   0  0  0  0  0  0  0  0  0  0  0  0
  -18.6578   -7.7851  -24.5648 H   0  0  0  0  0  0  0  0  0  0  0  0
  -18.9210   -7.6803  -20.1087 H   0  0  0  0  0  0  0  0  0  0  0  0
  -21.1868   -7.1251  -19.6510 H   0  0  0  0  0  0  0  0  0  0  0  0
  -20.8909   -5.6457  -18.6599 H   0  0  0  0  0  0  0  0  0  0  0  0
  -21.9051   -5.5343  -20.1336 H   0  0  0  0  0  0  0  0  0  0  0  0
  -21.6208   -2.0361  -22.1407 H   0  0  0  0  0  0  0  0  0  0  0  0
  -20.4965   -3.0144  -23.1523 H   0  0  0  0  0  0  0  0  0  0  0  0
  -22.0860   -3.7054  -22.6294 H   0  0  0  0  0  0  0  0  0  0  0  0
  -17.8203   -3.1791  -23.6675 H   0  0  0  0  0  0  0  0  0  0  0  0
  -19.2586   -2.4717  -22.8081 H   0  0  0  0  0  0  0  0  0  0  0  0
  -17.6084   -2.2850  -22.1046 H   0  0  0  0  0  0  0  0  0  0  0  0
  -16.5926   -5.1012  -22.6401 H   0  0  0  0  0  0  0  0  0  0  0  0
  1  2  1  0
  4  5  1  0
  5  6  1  0
  6  7  2  0
  1  8  1  0
  6  8  1  0
  2  9  1  0
  9 10  1  0
  3 11  2  0
 10 11  1  0
  3 12  1  0
 12 13  2  0
 13 14  1  0
 10 14  2  0
  9 15  1  0
 15 16  2  0
 16 17  1  0
 17 18  2  0
 18 19  1  0
 15 20  1  0
 19 20  2  0
  1 21  1  0
 21 22  2  0
 21 23  1  0
 23 24  2  0
 24 25  1  0
 25 26  1  0
 25 27  2  0
 27 28  1  0
 28 29  1  0
 27 30  1  0
 30 31  1  0
 23 32  1  0
 30 32  2  0
  2 33  1  6
  2 34  1  0
  3 35  1  0
  4 36  1  1
  4 37  1  0
  4 38  1  0
  5 39  1  0
  8 40  1  6
  8 41  1  0
  9 42  1  1
 11 43  1  0
 12 44  1  0
 13 45  1  0
 14 46  1  0
 16 47  1  0
 17 48  1  0
 18 49  1  0
 19 50  1  0
 20 51  1  0
 24 52  1  0
 26 53  1  1
 26 54  1  0
 26 55  1  0
 29 56  1  1
 29 57  1  0
 29 58  1  0
 31 59  1  6
 31 60  1  0
 31 61  1  0
 32 62  1  0
M  END
