7ODY_DGI_A_201
     RDKit          3D

 27 29  0  0  0  0  0  0  0  0999 V2000
    2.1122   -8.8443  -22.2608 O   0  0  0  0  0  0  0  0  0  0  0  0
    3.3033   -9.4685  -22.8977 P   0  0  1  0  0  0  0  0  0  0  0  0
    2.9933  -10.4158  -24.0187 O   0  0  0  0  0  0  0  0  0  0  0  0
    4.2926   -8.4455  -23.4598 O   0  0  0  0  0  0  0  0  0  0  0  0
    4.0390  -10.3490  -21.7779 O   0  0  0  0  0  0  0  0  0  0  0  0
    3.8497  -11.7384  -21.0193 P   0  0  2  0  0  0  0  0  0  0  0  0
    2.6026  -12.1002  -21.7144 O   0  0  0  0  0  0  0  0  0  0  0  0
    3.8203  -11.2135  -19.6213 O   0  0  0  0  0  0  0  0  0  0  0  0
    5.2376  -12.0818  -21.6298 O   0  0  0  0  0  0  0  0  0  0  0  0
    5.8056  -13.4097  -21.6907 C   0  0  0  0  0  0  0  0  0  0  0  0
    6.8953  -13.4854  -22.7281 C   0  0  1  0  0  0  0  0  0  0  0  0
    8.0741  -12.8106  -22.2335 O   0  0  0  0  0  0  0  0  0  0  0  0
    7.3163  -14.9143  -23.0788 C   0  0  1  0  0  0  0  0  0  0  0  0
    7.4698  -15.0764  -24.4894 O   0  0  0  0  0  0  0  0  0  0  0  0
    8.6650  -15.0695  -22.3897 C   0  0  0  0  0  0  0  0  0  0  0  0
    9.2013  -13.6485  -22.3662 C   0  0  2  0  0  0  0  0  0  0  0  0
   10.0916  -13.3836  -21.2271 N   0  0  0  0  0  0  0  0  0  0  0  0
    9.8856  -12.5453  -20.1664 C   0  0  0  0  0  0  0  0  0  0  0  0
   10.8738  -12.5534  -19.3003 N   0  0  0  0  0  0  0  0  0  0  0  0
   11.7860  -13.4506  -19.8332 C   0  0  0  0  0  0  0  0  0  0  0  0
   11.3104  -13.9715  -21.0176 C   0  0  0  0  0  0  0  0  0  0  0  0
   11.8825  -14.8906  -21.8114 N   0  0  0  0  0  0  0  0  0  0  0  0
   13.0486  -15.3152  -21.3425 C   0  0  0  0  0  0  0  0  0  0  0  0
   13.7044  -16.2819  -21.9857 N   0  0  0  0  0  0  0  0  0  0  0  0
   13.6099  -14.8440  -20.1844 N   0  0  0  0  0  0  0  0  0  0  0  0
   13.0520  -13.8909  -19.3580 C   0  0  0  0  0  0  0  0  0  0  0  0
   13.6484  -13.4970  -18.3551 O   0  0  0  0  0  0  0  0  0  0  0  0
  1  2  2  0
  2  3  1  6
  2  4  1  0
  2  5  1  0
  5  6  1  0
  6  7  2  0
  6  8  1  1
  6  9  1  0
  9 10  1  0
 11 10  1  1
 11 12  1  0
 11 13  1  0
 13 14  1  6
 13 15  1  0
 12 16  1  0
 15 16  1  0
 16 17  1  1
 17 18  1  0
 18 19  2  0
 19 20  1  0
 17 21  1  0
 20 21  2  0
 21 22  1  0
 22 23  2  0
 23 24  1  0
 23 25  1  0
 20 26  1  0
 25 26  1  0
 26 27  2  0
M  END
