2BM2_PM2_B_3211
     RDKit          3D

 59 62  0  0  0  0  0  0  0  0999 V2000
   43.5424  111.0349   81.5542 C   0  0  0  0  0  0  0  0  0  0  0  0
   43.7892  111.3429   80.1599 C   0  0  0  0  0  0  0  0  0  0  0  0
   44.6603  111.1398   82.4839 C   0  0  0  0  0  0  0  0  0  0  0  0
   45.1153  111.7411   79.7033 C   0  0  0  0  0  0  0  0  0  0  0  0
   45.9636  111.5335   82.0311 C   0  0  0  0  0  0  0  0  0  0  0  0
   46.1995  111.8329   80.6575 C   0  0  0  0  0  0  0  0  0  0  0  0
   45.3622  112.0650   78.2534 C   0  0  0  0  0  0  0  0  0  0  0  0
   44.1190  112.2868   77.4531 N   0  0  0  0  0  0  0  0  0  0  0  0
   41.6033  111.5459   83.2593 C   0  0  0  0  0  0  0  0  0  0  0  0
   40.2059  111.0070   83.7567 C   0  0  0  0  0  0  0  0  0  0  0  0
   38.1052  111.8371   82.4595 C   0  0  0  0  0  0  0  0  0  0  0  0
   36.9700  111.4176   82.6369 O   0  0  0  0  0  0  0  0  0  0  0  0
   42.1642  110.6135   82.1066 C   0  0  1  0  0  0  0  0  0  0  0  0
   39.2443  111.0312   82.6238 N   0  0  0  0  0  0  0  0  0  0  0  0
   39.7072  110.1074   81.5398 C   0  0  0  0  0  0  0  0  0  0  0  0
   41.0792  110.5040   80.9632 C   0  0  0  0  0  0  0  0  0  0  0  0
   38.1517  113.2939   82.0912 C   0  0  0  0  0  0  0  0  0  0  0  0
   37.1932  114.2331   82.6045 C   0  0  0  0  0  0  0  0  0  0  0  0
   39.1741  113.8013   81.2405 C   0  0  0  0  0  0  0  0  0  0  0  0
   37.3259  115.6314   82.2308 C   0  0  0  0  0  0  0  0  0  0  0  0
   39.2935  115.0954   80.8899 N   0  0  0  0  0  0  0  0  0  0  0  0
   36.3855  116.6739   82.7436 C   0  0  0  0  0  0  0  0  0  0  0  0
   38.4056  115.9845   81.3702 C   0  0  0  0  0  0  0  0  0  0  0  0
   34.9434  116.4458   82.3043 C   0  0  0  0  0  0  0  0  0  0  0  0
   34.7146  115.4752   81.1721 C   0  0  0  0  0  0  0  0  0  0  0  0
   35.5924  114.3586   80.9547 C   0  0  0  0  0  0  0  0  0  0  0  0
   33.5841  115.6666   80.2662 C   0  0  0  0  0  0  0  0  0  0  0  0
   35.3650  113.4260   79.8484 C   0  0  0  0  0  0  0  0  0  0  0  0
   33.3619  114.7560   79.1835 C   0  0  0  0  0  0  0  0  0  0  0  0
   34.2473  113.6267   78.9633 C   0  0  0  0  0  0  0  0  0  0  0  0
   43.0151  111.2796   79.4803 H   0  0  0  0  0  0  0  0  0  0  0  0
   44.5120  110.9277   83.4830 H   0  0  0  0  0  0  0  0  0  0  0  0
   46.7396  111.6006   82.7080 H   0  0  0  0  0  0  0  0  0  0  0  0
   47.1415  112.1147   80.3441 H   0  0  0  0  0  0  0  0  0  0  0  0
   45.9022  111.2517   77.8154 H   0  0  0  0  0  0  0  0  0  0  0  0
   45.9083  112.9849   78.2332 H   0  0  0  0  0  0  0  0  0  0  0  0
   43.5633  111.4315   77.4442 H   0  0  0  0  0  0  0  0  0  0  0  0
   44.3704  112.5390   76.4973 H   0  0  0  0  0  0  0  0  0  0  0  0
   42.2927  111.5516   84.0776 H   0  0  0  0  0  0  0  0  0  0  0  0
   41.4822  112.5392   82.8803 H   0  0  0  0  0  0  0  0  0  0  0  0
   39.8431  111.6290   84.5480 H   0  0  0  0  0  0  0  0  0  0  0  0
   40.3134  110.0052   84.1169 H   0  0  0  0  0  0  0  0  0  0  0  0
   42.3435  109.6507   82.5374 H   0  0  0  0  0  0  0  0  0  0  0  0
   38.9870  110.1208   80.7486 H   0  0  0  0  0  0  0  0  0  0  0  0
   39.8076  109.1322   81.9687 H   0  0  0  0  0  0  0  0  0  0  0  0
   41.3892  109.7628   80.2566 H   0  0  0  0  0  0  0  0  0  0  0  0
   40.9865  111.4587   80.4889 H   0  0  0  0  0  0  0  0  0  0  0  0
   36.4285  113.9222   83.2239 H   0  0  0  0  0  0  0  0  0  0  0  0
   39.8682  113.1342   80.8687 H   0  0  0  0  0  0  0  0  0  0  0  0
   36.7049  117.6286   82.3813 H   0  0  0  0  0  0  0  0  0  0  0  0
   36.4054  116.6240   83.8122 H   0  0  0  0  0  0  0  0  0  0  0  0
   38.5119  116.9751   81.1011 H   0  0  0  0  0  0  0  0  0  0  0  0
   34.5448  117.3920   82.0031 H   0  0  0  0  0  0  0  0  0  0  0  0
   34.4634  116.0012   83.1510 H   0  0  0  0  0  0  0  0  0  0  0  0
   36.3945  114.2115   81.5871 H   0  0  0  0  0  0  0  0  0  0  0  0
   32.9424  116.4624   80.4074 H   0  0  0  0  0  0  0  0  0  0  0  0
   36.0035  112.6282   79.7039 H   0  0  0  0  0  0  0  0  0  0  0  0
   32.5605  114.9047   78.5504 H   0  0  0  0  0  0  0  0  0  0  0  0
   34.0775  112.9752   78.1812 H   0  0  0  0  0  0  0  0  0  0  0  0
  1  2  2  0
  1  3  1  0
  2  4  1  0
  3  5  2  0
  4  6  2  0
  5  6  1  0
  4  7  1  0
  7  8  1  0
  9 10  1  0
 11 12  2  0
  1 13  1  0
  9 13  1  0
 10 14  1  0
 11 14  1  0
 14 15  1  0
 13 16  1  0
 15 16  1  0
 11 17  1  0
 17 18  2  0
 17 19  1  0
 18 20  1  0
 19 21  2  0
 20 22  1  0
 20 23  2  0
 21 23  1  0
 22 24  1  0
 24 25  1  0
 25 26  2  0
 25 27  1  0
 26 28  1  0
 27 29  2  0
 28 30  2  0
 29 30  1  0
  2 31  1  0
  3 32  1  0
  5 33  1  0
  6 34  1  0
  7 35  1  0
  7 36  1  0
  8 37  1  0
  8 38  1  0
  9 39  1  0
  9 40  1  0
 10 41  1  0
 10 42  1  0
 13 43  1  1
 15 44  1  0
 15 45  1  0
 16 46  1  0
 16 47  1  0
 18 48  1  0
 19 49  1  0
 22 50  1  0
 22 51  1  0
 23 52  1  0
 24 53  1  0
 24 54  1  0
 26 55  1  0
 27 56  1  0
 28 57  1  0
 29 58  1  0
 30 59  1  0
M  END
