7BKA_4JC_D_201
     RDKit          3D

 12 12  0  0  0  0  0  0  0  0999 V2000
    6.6601    5.8644   33.7221 O   0  0  0  0  0  0  0  0  0  0  0  0
    6.2208    5.8065   35.1749 S   0  0  1  0  0  0  0  0  0  0  0  0
    4.7288    5.7958   35.2838 O   0  0  0  0  0  0  0  0  0  0  0  0
    6.8768    4.3731   35.8818 N   0  0  0  0  0  0  0  0  0  0  0  0
    6.8113    7.1995   36.0581 C   0  0  0  0  0  0  0  0  0  0  0  0
    6.0388    7.8533   36.9941 C   0  0  0  0  0  0  0  0  0  0  0  0
    6.5415    8.9357   37.6588 C   0  0  0  0  0  0  0  0  0  0  0  0
    8.0897    7.6460   35.8002 C   0  0  0  0  0  0  0  0  0  0  0  0
    8.6120    8.7352   36.4608 C   0  0  0  0  0  0  0  0  0  0  0  0
    7.8290    9.3862   37.3997 C   0  0  0  0  0  0  0  0  0  0  0  0
    8.3316   10.5789   38.1575 C   0  0  0  0  0  0  0  0  0  0  0  0
    9.8463   10.5930   38.1216 C   0  0  0  0  0  0  0  0  0  0  0  0
  1  2  2  0
  2  3  2  0
  2  4  1  1
  2  5  1  0
  5  6  2  0
  6  7  1  0
  5  8  1  0
  8  9  2  0
  7 10  2  0
  9 10  1  0
 10 11  1  0
 11 12  1  0
M  END
$$$$
