8HO0_3ZI_A_402
     RDKit          3D

 22 25  0  0  0  0  0  0  0  0999 V2000
    4.5742   30.3076   -9.0037 C   0  0  1  0  0  0  0  0  0  0  0  0
    5.9118   26.3233   -9.8996 C   0  0  0  0  0  0  0  0  0  0  0  0
    6.0940   27.4245   -7.7386 C   0  0  0  0  0  0  0  0  0  0  0  0
    5.9752   27.4787   -9.1532 C   0  0  0  0  0  0  0  0  0  0  0  0
    5.5278   32.2100   -7.8776 O   0  0  0  0  0  0  0  0  0  0  0  0
    3.2676   33.5710   -7.4326 C   0  0  0  0  0  0  0  0  0  0  0  0
    2.1653   30.8456   -9.8722 C   0  0  0  0  0  0  0  0  0  0  0  0
    5.9137   30.0511   -9.6688 C   0  0  0  0  0  0  0  0  0  0  0  0
    5.9049   28.5514  -10.0837 C   0  0  0  0  0  0  0  0  0  0  0  0
    5.9680   25.0614   -9.2394 C   0  0  0  0  0  0  0  0  0  0  0  0
    6.0609   24.9918   -7.8488 C   0  0  0  0  0  0  0  0  0  0  0  0
    6.1331   26.1795   -7.0949 C   0  0  0  0  0  0  0  0  0  0  0  0
    4.5508   31.6749   -8.2907 C   0  0  0  0  0  0  0  0  0  0  0  0
    2.0994   31.6662   -8.5670 C   0  0  2  0  0  0  0  0  0  0  0  0
    1.3215   33.1167   -8.7887 C   0  0  0  0  0  0  0  0  0  0  0  0
    1.9952   34.0660   -7.7634 C   0  0  0  0  0  0  0  0  0  0  0  0
    5.7990   28.0071  -11.3682 C   0  0  0  0  0  0  0  0  0  0  0  0
    5.8961   23.9261   -9.9804 F   0  0  0  0  0  0  0  0  0  0  0  0
    3.2490   32.0862   -8.1951 N   0  0  0  0  0  0  0  0  0  0  0  0
    3.5156   30.1256  -10.0931 N   0  0  0  0  0  0  0  0  0  0  0  0
    5.8015   26.6687  -11.2353 N   0  0  0  0  0  0  0  0  0  0  0  0
    1.2740   30.7630  -10.6681 O   0  0  0  0  0  0  0  0  0  0  0  0
  2  4  1  0
  3  4  2  0
  1  8  1  6
  4  9  1  0
  8  9  1  0
  2 10  2  0
 10 11  1  0
 11 12  2  0
  3 12  1  0
  1 13  1  0
  5 13  2  0
  7 14  1  0
 14 15  1  6
  6 16  1  0
 15 16  1  0
  9 17  2  0
 10 18  1  0
 13 19  1  0
 14 19  1  0
  6 19  1  0
  1 20  1  0
  7 20  1  0
  2 21  1  0
 17 21  1  0
  7 22  2  0
M  END
