8FLV_ZB9_A_701
     RDKit          3D

 29 32  0  0  0  0  0  0  0  0999 V2000
  -15.0301    5.7567  -18.7412 N   0  0  0  0  0  0  0  0  0  0  0  0
  -18.5183    5.0752  -16.8516 N   0  0  0  0  0  0  0  0  0  0  0  0
  -17.4209    5.2511  -17.6098 C   0  0  0  0  0  0  0  0  0  0  0  0
  -16.8937    5.8976  -15.5828 C   0  0  0  0  0  0  0  0  0  0  0  0
  -18.2118    5.4679  -15.6012 C   0  0  0  0  0  0  0  0  0  0  0  0
  -14.0110    6.2315  -15.2320 C   0  0  0  0  0  0  0  0  0  0  0  0
  -13.0438    7.4189  -17.1713 C   0  0  1  0  0  0  0  0  0  0  0  0
  -10.9003    7.6775  -18.2870 C   0  0  0  0  0  0  0  0  0  0  0  0
  -10.9911   10.3720  -16.1381 C   0  0  0  0  0  0  0  0  0  0  0  0
   -8.6819    9.8501  -14.6865 C   0  0  0  0  0  0  0  0  0  0  0  0
   -8.6559    7.6635  -13.6291 C   0  0  0  0  0  0  0  0  0  0  0  0
   -8.8671   10.4290  -13.4574 C   0  0  0  0  0  0  0  0  0  0  0  0
  -16.0471    5.2556  -19.4770 C   0  0  0  0  0  0  0  0  0  0  0  0
  -11.4191    9.0972  -18.2625 C   0  0  0  0  0  0  0  0  0  0  0  0
  -12.7901    8.6069  -16.2655 C   0  0  0  0  0  0  0  0  0  0  0  0
   -9.7224   10.8517  -16.7445 C   0  0  0  0  0  0  0  0  0  0  0  0
   -8.5823    8.4745  -14.7264 C   0  0  0  0  0  0  0  0  0  0  0  0
   -8.8409    8.2439  -12.4002 C   0  0  0  0  0  0  0  0  0  0  0  0
   -8.9446    9.6279  -12.3314 C   0  0  0  0  0  0  0  0  0  0  0  0
  -15.1406    6.0290  -17.4307 C   0  0  0  0  0  0  0  0  0  0  0  0
  -16.3828    5.7630  -16.8570 C   0  0  0  0  0  0  0  0  0  0  0  0
  -11.7439    6.7401  -17.4313 C   0  0  0  0  0  0  0  0  0  0  0  0
  -17.2541    4.9978  -18.9166 N   0  0  0  0  0  0  0  0  0  0  0  0
  -14.0820    6.5569  -16.6431 N   0  0  0  0  0  0  0  0  0  0  0  0
  -11.7199    9.3844  -16.8574 N   0  0  0  0  0  0  0  0  0  0  0  0
   -8.5892   10.6244  -15.8744 N   0  0  0  0  0  0  0  0  0  0  0  0
  -11.4420   10.7895  -15.0409 O   0  0  0  0  0  0  0  0  0  0  0  0
   -9.1827   10.3813  -10.7541 Cl  0  0  0  0  0  0  0  0  0  0  0  0
   -8.5142    5.9156  -13.8078 Cl  0  0  0  0  0  0  0  0  0  0  0  0
  2  3  1  0
  2  5  1  0
  4  5  2  0
 10 12  2  0
  1 13  2  0
  8 14  1  0
  7 15  1  0
  9 16  1  0
 10 17  1  0
 11 17  2  0
 11 18  1  0
 12 19  1  0
 18 19  2  0
  1 20  1  0
 20 21  2  0
  3 21  1  0
  4 21  1  0
  7 22  1  0
  8 22  1  0
 13 23  1  0
  3 23  2  0
  6 24  1  0
 20 24  1  0
  7 24  1  1
 15 25  1  0
 14 25  1  0
  9 25  1  0
 16 26  1  0
 10 26  1  0
  9 27  2  0
 19 28  1  0
 11 29  1  0
M  END
$$$$
