
     RDKit          3D

 44 48  0  0  0  0  0  0  0  0999 V2000
   -0.4724    7.1434    0.9230 C   0  0  0  0  0  0  0  0  0  0  0  0
   -2.9052    5.1192   15.6331 C   0  0  2  0  0  0  0  0  0  0  0  0
    0.8610    5.1207    0.7958 C   0  0  0  0  0  0  0  0  0  0  0  0
    0.3122    6.1628    1.5446 C   0  0  0  0  0  0  0  0  0  0  0  0
   -1.6100    8.9581    4.8410 C   0  0  1  0  0  0  0  0  0  0  0  0
   -2.5256    1.3292   17.7169 C   0  0  0  0  0  0  0  0  0  0  0  0
   -2.6948    6.6226   15.4518 C   0  0  1  0  0  0  0  0  0  0  0  0
   -1.3433    7.7103    3.9837 C   0  0  1  0  0  0  0  0  0  0  0  0
   -0.6931    7.0723   -0.4574 C   0  0  0  0  0  0  0  0  0  0  0  0
   -3.7445    6.9247   14.3924 C   0  0  1  0  0  0  0  0  0  0  0  0
   -2.1919    6.7073    4.7526 C   0  0  1  0  0  0  0  0  0  0  0  0
   -1.7969    3.2237   16.8281 C   0  0  0  0  0  0  0  0  0  0  0  0
   -3.7354    5.6719   13.5168 C   0  0  1  0  0  0  0  0  0  0  0  0
   -3.4507    7.5333    4.9954 C   0  0  1  0  0  0  0  0  0  0  0  0
   -0.4889    2.9747   17.2096 C   0  0  0  0  0  0  0  0  0  0  0  0
   -2.9064    5.8126   12.2391 C   0  0  0  0  0  0  0  0  0  0  0  0
   -4.2846    7.0609    6.1833 C   0  0  0  0  0  0  0  0  0  0  0  0
   -0.2529    1.7732   17.8979 C   0  0  0  0  0  0  0  0  0  0  0  0
   -1.0903    8.2640    1.6798 C   0  0  0  0  0  0  0  0  0  0  0  0
   -0.1456    6.0255   -1.2030 C   0  0  0  0  0  0  0  0  0  0  0  0
   -0.4561    4.8641   16.2129 C   0  0  0  0  0  0  0  0  0  0  0  0
    0.6359    5.0554   -0.5771 C   0  0  0  0  0  0  0  0  0  0  0  0
   -1.3044    0.9607   18.1604 N   0  0  0  0  0  0  0  0  0  0  0  0
   -2.8687    2.4438   17.0424 N   0  0  0  0  0  0  0  0  0  0  0  0
    1.0056    1.3851   18.3449 N   0  0  0  0  0  0  0  0  0  0  0  0
    0.3372    4.0089   16.8281 N   0  0  0  0  0  0  0  0  0  0  0  0
   -1.7581    4.4392   16.1994 N   0  0  0  0  0  0  0  0  0  0  0  0
   -1.1873    8.1746   11.3159 O   0  0  0  0  0  0  0  0  0  0  0  0
   -4.4733    5.7462    9.1880 O   0  0  0  0  0  0  0  0  0  0  0  0
   -1.3241   10.2011    4.2391 O   0  0  0  0  0  0  0  0  0  0  0  0
   -2.9528    7.3997   16.6201 O   0  0  0  0  0  0  0  0  0  0  0  0
   -3.2683    8.8359    9.9108 O   0  0  0  0  0  0  0  0  0  0  0  0
   -2.5800    5.0332    7.5356 O   0  0  0  0  0  0  0  0  0  0  0  0
   -1.9109    7.7899    2.6499 O   0  0  0  0  0  0  0  0  0  0  0  0
   -5.0296    7.0534   15.0233 O   0  0  0  0  0  0  0  0  0  0  0  0
   -2.0573    6.7281    9.2928 O   0  0  0  0  0  0  0  0  0  0  0  0
   -2.4434    5.5106    4.0351 O   0  0  0  0  0  0  0  0  0  0  0  0
   -3.1698    4.5984   14.3123 O   0  0  0  0  0  0  0  0  0  0  0  0
   -3.0057    8.9015    5.2056 O   0  0  0  0  0  0  0  0  0  0  0  0
   -3.4214    6.8396   11.4035 O   0  0  0  0  0  0  0  0  0  0  0  0
   -3.5350    7.3424    7.3567 O   0  0  0  0  0  0  0  0  0  0  0  0
   -0.9186    9.4499    1.4395 O   0  0  0  0  0  0  0  0  0  0  0  0
   -2.3557    7.6785   10.5337 P   0  0  1  0  0  5  0  0  0  0  0  0
   -3.2634    6.1757    8.4204 P   0  0  2  0  0  5  0  0  0  0  0  0
  3  4  4  0
  1  4  4  0
  2  7  1  0
  5  8  1  0
  1  9  4  0
  7 10  1  0
  8 11  1  0
 10 13  1  0
 11 14  1  0
 12 15  4  0
 13 16  1  6
 14 17  1  1
 15 18  4  0
  1 19  1  0
  9 20  4  0
 20 22  4  0
  3 22  4  0
  6 23  4  0
 18 23  4  0
 12 24  4  0
  6 24  4  0
 18 25  1  0
 21 26  4  0
 15 26  4  0
  2 27  1  6
 21 27  4  0
 12 27  4  0
  5 30  1  6
  7 31  1  1
 19 34  1  0
  8 34  1  6
 10 35  1  1
 11 37  1  6
 13 38  1  0
  2 38  1  0
  5 39  1  0
 14 39  1  0
 16 40  1  0
 17 41  1  0
 19 42  2  0
 43 36  1  0
 28 43  2  0
 43 32  1  6
 40 43  1  0
 44 41  1  0
 29 44  2  0
 44 33  1  6
 36 44  1  0
M  END
