7NUT_GLP_B_501
     RDKit          3D

 30 30  0  0  0  0  0  0  0  0999 V2000
   -3.4738    0.6403  -10.6649 C   0  0  2  0  0  0  0  0  0  0  0  0
   -4.3107    0.4054  -11.9389 C   0  0  2  0  0  0  0  0  0  0  0  0
   -5.4112   -0.6583  -11.7072 C   0  0  1  0  0  0  0  0  0  0  0  0
   -5.7336   -0.8685  -10.2078 C   0  0  2  0  0  0  0  0  0  0  0  0
   -5.4678    0.3983   -9.3371 C   0  0  2  0  0  0  0  0  0  0  0  0
   -6.6534    1.3769   -9.3600 C   0  0  0  0  0  0  0  0  0  0  0  0
   -2.7774   -0.5151  -10.2695 O   0  0  0  0  0  0  0  0  0  0  0  0
   -3.4448    0.0098  -13.0533 N   0  0  0  0  0  0  0  0  0  0  0  0
   -6.5849   -0.2853  -12.3850 O   0  0  0  0  0  0  0  0  0  0  0  0
   -4.9750   -1.9374   -9.6965 O   0  0  0  0  0  0  0  0  0  0  0  0
   -4.2646    1.1229   -9.5937 O   0  0  0  0  0  0  0  0  0  0  0  0
   -7.4761    1.1158  -10.4718 O   0  0  0  0  0  0  0  0  0  0  0  0
   -7.8478    2.5959  -11.2328 P   0  0  2  0  0  5  0  0  0  0  0  0
   -6.7580    3.6070  -10.9558 O   0  0  0  0  0  0  0  0  0  0  0  0
   -9.3085    3.1804  -10.6115 O   0  0  0  0  0  0  0  0  0  0  0  0
   -8.0035    2.3784  -12.9046 O   0  0  0  0  0  0  0  0  0  0  0  0
   -2.7338    1.4427  -10.8908 H   0  0  0  0  0  0  0  0  0  0  0  0
   -4.7912    1.3771  -12.1969 H   0  0  0  0  0  0  0  0  0  0  0  0
   -5.0651   -1.6385  -12.1154 H   0  0  0  0  0  0  0  0  0  0  0  0
   -6.8118   -1.1416  -10.1074 H   0  0  0  0  0  0  0  0  0  0  0  0
   -5.4031    0.0437   -8.2843 H   0  0  0  0  0  0  0  0  0  0  0  0
   -6.2405    2.4095   -9.4223 H   0  0  0  0  0  0  0  0  0  0  0  0
   -7.2197    1.2795   -8.4052 H   0  0  0  0  0  0  0  0  0  0  0  0
   -2.0007   -0.6112  -10.8802 H   0  0  0  0  0  0  0  0  0  0  0  0
   -2.7628    0.7822  -13.2335 H   0  0  0  0  0  0  0  0  0  0  0  0
   -4.0305   -0.0606  -13.9172 H   0  0  0  0  0  0  0  0  0  0  0  0
   -6.4256   -0.4451  -13.3518 H   0  0  0  0  0  0  0  0  0  0  0  0
   -5.3929   -2.7768  -10.0240 H   0  0  0  0  0  0  0  0  0  0  0  0
   -9.9522    2.4394  -10.7431 H   0  0  0  0  0  0  0  0  0  0  0  0
   -8.7137    1.6953  -13.0046 H   0  0  0  0  0  0  0  0  0  0  0  0
  1  2  1  0
  2  3  1  0
  3  4  1  0
  4  5  1  0
  5  6  1  0
  1  7  1  0
  2  8  1  0
  3  9  1  0
  4 10  1  0
  1 11  1  0
  5 11  1  0
  6 12  1  0
 13 12  1  6
 13 14  2  0
 13 15  1  0
 13 16  1  0
  1 17  1  1
  2 18  1  1
  3 19  1  1
  4 20  1  1
  5 21  1  6
  6 22  1  0
  6 23  1  0
  7 24  1  0
  8 25  1  0
  8 26  1  0
  9 27  1  0
 10 28  1  0
 15 29  1  0
 16 30  1  0
M  END
