7LT0_ONJ_A_301
     RDKit          3D

 48 51  0  0  0  0  0  0  0  0999 V2000
  -12.4511   -3.5376  -14.6213 C   0  0  0  0  0  0  0  0  0  0  0  0
  -11.2616   -3.9844  -15.2152 C   0  0  0  0  0  0  0  0  0  0  0  0
  -10.0248   -3.6018  -14.6881 C   0  0  0  0  0  0  0  0  0  0  0  0
   -9.9636   -2.7662  -13.5643 C   0  0  0  0  0  0  0  0  0  0  0  0
  -11.1512   -2.2939  -12.9845 C   0  0  0  0  0  0  0  0  0  0  0  0
  -12.3876   -2.6605  -13.5287 C   0  0  0  0  0  0  0  0  0  0  0  0
  -13.7546   -3.9918  -15.1417 C   0  0  0  0  0  0  0  0  0  0  0  0
  -14.7852   -3.0532  -15.4995 N   0  0  0  0  0  0  0  0  0  0  0  0
  -13.9743   -5.2292  -15.2455 O   0  0  0  0  0  0  0  0  0  0  0  0
  -16.1952   -3.4294  -15.6298 C   0  0  0  0  0  0  0  0  0  0  0  0
  -16.8830   -2.1214  -15.7526 C   0  0  0  0  0  0  0  0  0  0  0  0
  -15.9810   -1.0856  -15.6837 C   0  0  0  0  0  0  0  0  0  0  0  0
  -14.6010   -1.5977  -15.5227 C   0  0  0  0  0  0  0  0  0  0  0  0
  -18.2490   -1.8814  -15.9100 C   0  0  0  0  0  0  0  0  0  0  0  0
  -18.6896   -0.5508  -16.0002 C   0  0  0  0  0  0  0  0  0  0  0  0
  -17.7649    0.5095  -15.9327 C   0  0  0  0  0  0  0  0  0  0  0  0
  -16.3952    0.2443  -15.7737 C   0  0  0  0  0  0  0  0  0  0  0  0
  -11.1050   -1.2515  -11.5227 S   0  0  0  0  0  0  0  0  0  0  0  0
  -11.4059   -2.6388  -10.4258 C   0  0  0  0  0  0  0  0  0  0  0  0
   -8.7303   -2.4036  -13.0247 O   0  0  0  0  0  0  0  0  0  0  0  0
  -11.3009   -3.9490  -10.9023 C   0  0  0  0  0  0  0  0  0  0  0  0
  -11.5737   -5.0402  -10.0587 C   0  0  0  0  0  0  0  0  0  0  0  0
  -11.9770   -4.8016   -8.7217 C   0  0  0  0  0  0  0  0  0  0  0  0
  -12.0575   -3.4794   -8.2517 C   0  0  0  0  0  0  0  0  0  0  0  0
  -11.7699   -2.4077   -9.0974 C   0  0  0  0  0  0  0  0  0  0  0  0
  -12.2931   -5.9366   -7.7838 C   0  0  0  0  0  0  0  0  0  0  0  0
  -11.4698   -6.4389  -10.6078 C   0  0  0  0  0  0  0  0  0  0  0  0
  -11.2912   -4.6500  -16.0694 H   0  0  0  0  0  0  0  0  0  0  0  0
   -9.1140   -3.9664  -15.1461 H   0  0  0  0  0  0  0  0  0  0  0  0
  -13.2978   -2.2703  -13.0908 H   0  0  0  0  0  0  0  0  0  0  0  0
  -16.5444   -3.9633  -14.7201 H   0  0  0  0  0  0  0  0  0  0  0  0
  -16.3482   -4.0434  -16.5425 H   0  0  0  0  0  0  0  0  0  0  0  0
  -13.9860   -1.2890  -16.3904 H   0  0  0  0  0  0  0  0  0  0  0  0
  -14.1614   -1.2430  -14.5661 H   0  0  0  0  0  0  0  0  0  0  0  0
  -18.9536   -2.7013  -15.9599 H   0  0  0  0  0  0  0  0  0  0  0  0
  -19.7439   -0.3397  -16.1216 H   0  0  0  0  0  0  0  0  0  0  0  0
  -18.1104    1.5325  -16.0037 H   0  0  0  0  0  0  0  0  0  0  0  0
  -15.6774    1.0531  -15.7226 H   0  0  0  0  0  0  0  0  0  0  0  0
   -7.8596   -2.7356  -13.4229 H   0  0  0  0  0  0  0  0  0  0  0  0
  -11.0167   -4.1144  -11.9344 H   0  0  0  0  0  0  0  0  0  0  0  0
  -12.3493   -3.2747   -7.2292 H   0  0  0  0  0  0  0  0  0  0  0  0
  -11.8452   -1.3950   -8.7218 H   0  0  0  0  0  0  0  0  0  0  0  0
  -13.0240   -6.6284   -8.2527 H   0  0  0  0  0  0  0  0  0  0  0  0
  -12.7384   -5.5698   -6.8342 H   0  0  0  0  0  0  0  0  0  0  0  0
  -11.3622   -6.4914   -7.5427 H   0  0  0  0  0  0  0  0  0  0  0  0
  -10.9915   -6.4493  -11.6107 H   0  0  0  0  0  0  0  0  0  0  0  0
  -10.8526   -7.0699   -9.9346 H   0  0  0  0  0  0  0  0  0  0  0  0
  -12.4841   -6.8804  -10.6994 H   0  0  0  0  0  0  0  0  0  0  0  0
  1  2  4  0
  2  3  4  0
  3  4  4  0
  4  5  4  0
  1  6  4  0
  5  6  4  0
  1  7  1  0
  7  8  1  0
  7  9  2  0
  8 10  1  0
 10 11  1  0
 11 12  4  0
  8 13  1  0
 12 13  1  0
 11 14  4  0
 14 15  4  0
 15 16  4  0
 16 17  4  0
 12 17  4  0
  5 18  1  0
 18 19  1  0
  4 20  1  0
 19 21  4  0
 21 22  4  0
 22 23  4  0
 23 24  4  0
 24 25  4  0
 19 25  4  0
 23 26  1  0
 22 27  1  0
  2 28  1  0
  3 29  1  0
  6 30  1  0
 10 31  1  0
 10 32  1  0
 13 33  1  0
 13 34  1  0
 14 35  1  0
 15 36  1  0
 16 37  1  0
 17 38  1  0
 20 39  1  0
 21 40  1  0
 24 41  1  0
 25 42  1  0
 26 43  1  0
 26 44  1  0
 26 45  1  0
 27 46  1  0
 27 47  1  0
 27 48  1  0
M  END
