1N2J_PAF_A_1001
     RDKit          3D

 10  9  0  0  0  0  0  0  0  0999 V2000
   27.6398   17.9866   60.6133 O   0  0  0  0  0  0  0  0  0  0  0  0
   27.0915   18.7948   59.7483 C   0  0  0  0  0  0  0  0  0  0  0  0
   27.7467   19.6195   59.0997 O   0  0  0  0  0  0  0  0  0  0  0  0
   25.5489   18.6642   59.5217 C   0  0  2  0  0  0  0  0  0  0  0  0
   24.8867   18.6933   60.8317 O   0  0  0  0  0  0  0  0  0  0  0  0
   25.1807   17.3220   58.7496 C   0  0  1  0  0  0  0  0  0  0  0  0
   26.1310   17.0826   57.5782 C   0  0  0  0  0  0  0  0  0  0  0  0
   25.2029   16.1352   59.6931 C   0  0  0  0  0  0  0  0  0  0  0  0
   23.7502   17.5419   58.1980 C   0  0  0  0  0  0  0  0  0  0  0  0
   23.7764   18.2681   56.9808 O   0  0  0  0  0  0  0  0  0  0  0  0
  1  2  1  0
  2  3  2  0
  2  4  1  0
  4  5  1  1
  4  6  1  0
  6  7  1  6
  6  8  1  0
  6  9  1  0
  9 10  1  0
M  CHG  1   1  -1
M  END
