1N2J_PAF_A_1001
     RDKit          3D

 10  9  0  0  0  0  0  0  0  0999 V2000
   26.9528   16.2350   60.0463 O   0  0  0  0  0  0  0  0  0  0  0  0
   27.1096   17.1786   59.1590 C   0  0  0  0  0  0  0  0  0  0  0  0
   27.8162   17.0362   58.1538 O   0  0  0  0  0  0  0  0  0  0  0  0
   26.3310   18.5162   59.3887 C   0  0  2  0  0  0  0  0  0  0  0  0
   26.5913   18.9712   60.7601 O   0  0  0  0  0  0  0  0  0  0  0  0
   24.7671   18.3317   59.1585 C   0  0  1  0  0  0  0  0  0  0  0  0
   24.4889   17.5117   57.9005 C   0  0  0  0  0  0  0  0  0  0  0  0
   24.1192   17.6781   60.3636 C   0  0  0  0  0  0  0  0  0  0  0  0
   24.2074   19.7620   58.9586 C   0  0  0  0  0  0  0  0  0  0  0  0
   24.3813   20.1981   57.6210 O   0  0  0  0  0  0  0  0  0  0  0  0
  1  2  1  0
  2  3  2  0
  2  4  1  0
  4  5  1  1
  4  6  1  0
  6  7  1  6
  6  8  1  0
  6  9  1  0
  9 10  1  0
M  CHG  1   1  -1
M  END
