
     RDKit          3D

 21 23  0  0  0  0  0  0  0  0999 V2000
   19.6306  -12.9832    6.3941 C   0  0  0  0  0  0  0  0  0  0  0  0
   19.3436  -13.9444    7.3632 C   0  0  0  0  0  0  0  0  0  0  0  0
   18.6347  -11.9024    2.9849 C   0  0  0  0  0  0  0  0  0  0  0  0
   19.2362  -13.1669    5.0591 C   0  0  0  0  0  0  0  0  0  0  0  0
   18.8885  -10.9406    1.9924 C   0  0  0  0  0  0  0  0  0  0  0  0
   18.2541  -15.3138    5.6888 C   0  0  0  0  0  0  0  0  0  0  0  0
   18.6578  -15.1041    7.0082 C   0  0  0  0  0  0  0  0  0  0  0  0
   19.5384  -12.1507    4.0357 C   0  0  0  0  0  0  0  0  0  0  0  0
   17.8232  -17.1444    4.2332 C   0  0  0  0  0  0  0  0  0  0  0  0
   17.5926  -16.4923    5.4756 O   0  0  0  0  0  0  0  0  0  0  0  0
   20.6960   -9.1779    1.2727 C   0  0  0  0  0  0  0  0  0  0  0  0
   20.1683   -8.5477    0.0332 C   0  0  0  0  0  0  0  0  0  0  0  0
   18.8570   -7.8492    0.2756 C   0  0  0  0  0  0  0  0  0  0  0  0
   21.8890   -8.8902    1.9065 C   0  0  0  0  0  0  0  0  0  0  0  0
   20.9596  -10.4649    3.1012 C   0  0  0  0  0  0  0  0  0  0  0  0
   20.7348  -11.4124    4.0985 C   0  0  0  0  0  0  0  0  0  0  0  0
   18.5440  -14.3466    4.7224 C   0  0  0  0  0  0  0  0  0  0  0  0
   20.0847  -10.2062    2.0547 C   0  0  0  0  0  0  0  0  0  0  0  0
   17.7587   -8.3784    0.3446 O   0  0  0  0  0  0  0  0  0  0  0  0
   18.9869   -6.5168    0.4378 O   0  0  0  0  0  0  0  0  0  0  0  0
   22.0554   -9.6641    3.0084 O   0  0  0  0  0  0  0  0  0  0  0  0
  1  2  4  0
  1  4  4  0
  3  5  4  0
  6  7  4  0
  2  7  4  0
  3  8  4  0
  4  8  1  0
  9 10  1  0
  6 10  1  0
 11 12  1  0
 12 13  1  0
 11 14  4  0
 15 16  4  0
  8 16  4  0
  4 17  4  0
  6 17  4  0
 11 18  4  0
  5 18  4  0
 15 18  4  0
 13 19  2  0
 13 20  1  0
 14 21  4  0
 15 21  4  0
M  END
