
     RDKit          3D

 43 46  0  0  0  0  0  0  0  0999 V2000
   -8.9903  -23.7466  -21.3603 C   0  0  0  0  0  0  0  0  0  0  0  0
   -7.7146  -25.5940  -20.4639 N   0  0  0  0  0  0  0  0  0  0  0  0
   -8.7929  -25.1462  -21.1837 C   0  0  0  0  0  0  0  0  0  0  0  0
   -9.5097  -26.2655  -21.5903 C   0  0  0  0  0  0  0  0  0  0  0  0
   -8.7715  -27.4234  -21.1559 C   0  0  0  0  0  0  0  0  0  0  0  0
   -7.6460  -26.9594  -20.4948 C   0  0  0  0  0  0  0  0  0  0  0  0
   -9.1378  -28.8490  -21.3948 C   0  0  0  0  0  0  0  0  0  0  0  0
  -10.7937  -26.2660  -22.3742 C   0  0  0  0  0  0  0  0  0  0  0  0
  -10.7102  -25.4592  -23.6651 C   0  0  0  0  0  0  0  0  0  0  0  0
  -12.0442  -25.3683  -24.3458 C   0  0  0  0  0  0  0  0  0  0  0  0
  -12.6766  -24.3483  -24.5686 O   0  0  0  0  0  0  0  0  0  0  0  0
  -12.5517  -26.5734  -24.6681 O   0  0  0  0  0  0  0  0  0  0  0  0
   -6.5166  -27.5613  -19.8874 C   0  0  0  0  0  0  0  0  0  0  0  0
   -6.0445  -29.0133  -21.7392 N   0  0  0  0  0  0  0  0  0  0  0  0
   -5.8012  -28.5164  -20.4971 C   0  0  0  0  0  0  0  0  0  0  0  0
   -4.6181  -29.2105  -20.0230 C   0  0  0  0  0  0  0  0  0  0  0  0
   -4.1703  -30.0823  -20.9552 C   0  0  0  0  0  0  0  0  0  0  0  0
   -5.1178  -29.9533  -22.1117 C   0  0  0  0  0  0  0  0  0  0  0  0
   -4.0425  -28.9176  -18.6764 C   0  0  0  0  0  0  0  0  0  0  0  0
   -5.0927  -30.5509  -23.1728 O   0  0  0  0  0  0  0  0  0  0  0  0
   -3.0214  -30.9537  -20.8845 C   0  0  0  0  0  0  0  0  0  0  0  0
   -2.8917  -32.1504  -21.4712 C   0  0  0  0  0  0  0  0  0  0  0  0
   -4.8514  -23.8240  -18.6035 N   0  0  0  0  0  0  0  0  0  0  0  0
   -3.9626  -24.5578  -17.8637 C   0  0  0  0  0  0  0  0  0  0  0  0
   -3.0823  -23.5690  -17.1936 C   0  0  0  0  0  0  0  0  0  0  0  0
   -3.4989  -22.3424  -17.5763 C   0  0  0  0  0  0  0  0  0  0  0  0
   -4.6600  -22.4855  -18.4492 C   0  0  0  0  0  0  0  0  0  0  0  0
   -1.9764  -24.0234  -16.3178 C   0  0  0  0  0  0  0  0  0  0  0  0
   -3.8969  -25.7661  -17.7494 O   0  0  0  0  0  0  0  0  0  0  0  0
   -2.8603  -21.1265  -17.1144 C   0  0  0  0  0  0  0  0  0  0  0  0
   -1.5454  -20.8881  -17.1949 C   0  0  0  0  0  0  0  0  0  0  0  0
   -5.4241  -21.5237  -18.9797 C   0  0  0  0  0  0  0  0  0  0  0  0
   -7.0853  -22.9902  -20.0775 N   0  0  0  0  0  0  0  0  0  0  0  0
   -6.6105  -21.8075  -19.8203 C   0  0  0  0  0  0  0  0  0  0  0  0
   -7.3776  -20.6835  -20.4047 C   0  0  0  0  0  0  0  0  0  0  0  0
   -8.3819  -21.3306  -21.0227 C   0  0  0  0  0  0  0  0  0  0  0  0
   -8.2068  -22.7775  -20.8491 C   0  0  0  0  0  0  0  0  0  0  0  0
   -6.9794  -19.2640  -20.2608 C   0  0  0  0  0  0  0  0  0  0  0  0
   -9.5805  -20.8288  -21.7963 C   0  0  0  0  0  0  0  0  0  0  0  0
   -9.5260  -19.5110  -22.5665 C   0  0  0  0  0  0  0  0  0  0  0  0
   -9.3414  -19.7032  -24.0466 C   0  0  0  0  0  0  0  0  0  0  0  0
   -9.9489  -19.1573  -24.9505 O   0  0  0  0  0  0  0  0  0  0  0  0
   -8.3795  -20.6075  -24.3171 O   0  0  0  0  0  0  0  0  0  0  0  0
  1  3  1  0
  2  3  4  0
  3  4  4  0
  4  5  4  0
  2  6  4  0
  5  6  4  0
  5  7  1  0
  4  8  1  0
  8  9  1  0
  9 10  1  0
 10 11  2  0
 10 12  1  0
  6 13  1  0
 13 15  2  0
 14 15  1  0
 15 16  1  0
 16 17  2  0
 14 18  1  0
 17 18  1  0
 16 19  1  0
 18 20  2  0
 17 21  1  0
 21 22  2  0
 23 24  1  0
 24 25  1  0
 25 26  2  0
 23 27  1  0
 26 27  1  0
 25 28  1  0
 24 29  2  0
 26 30  1  0
 30 31  2  0
 27 32  2  0
 32 34  1  0
 33 34  2  0
 34 35  1  0
 35 36  2  0
  1 37  2  0
 33 37  1  0
 36 37  1  0
 35 38  1  0
 36 39  1  0
 39 40  1  0
 40 41  1  0
 41 42  2  0
 41 43  1  0
M  END
