1GM8_SOX_B_1559
     RDKit          3D

 44 46  0  0  0  0  0  0  0  0999 V2000
   -5.0241   -1.2823    1.7516 O   0  0  0  0  0  0  0  0  0  0  0  0
   -3.9153   -1.6143    1.2577 C   0  0  0  0  0  0  0  0  0  0  0  0
   -3.2953   -1.5190   -0.0834 N   0  0  0  0  0  0  0  0  0  0  0  0
   -3.8021   -1.7538   -1.4239 C   0  0  1  0  0  0  0  0  0  0  0  0
   -3.2953   -0.6686   -2.3368 C   0  0  0  0  0  0  0  0  0  0  0  0
   -4.0651    0.2496   -2.7298 O   0  0  0  0  0  0  0  0  0  0  0  0
   -1.9567   -0.6573   -2.7146 O   0  0  0  0  0  0  0  0  0  0  0  0
   -3.3052   -3.1950   -1.7985 C   0  0  1  0  0  0  0  0  0  0  0  0
   -4.4035   -4.2206   -1.4569 C   0  0  0  0  0  0  0  0  0  0  0  0
   -2.9096   -3.3634   -3.2780 C   0  0  0  0  0  0  0  0  0  0  0  0
   -1.8455   -3.4948   -0.7345 S   0  0  1  0  0  4  0  0  0  0  0  0
   -2.1164   -2.1504    0.4457 C   0  0  2  0  0  0  0  0  0  0  0  0
   -2.7076   -2.3433    1.7566 C   0  0  2  0  0  0  0  0  0  0  0  0
   -3.0258   -3.7236    2.1241 N   0  0  0  0  0  0  0  0  0  0  0  0
   -3.8461   -4.5534    1.2903 C   0  0  0  0  0  0  0  0  0  0  0  0
   -3.7001   -5.8059    1.2998 O   0  0  0  0  0  0  0  0  0  0  0  0
   -4.8583   -3.9324    0.3748 C   0  0  0  0  0  0  0  0  0  0  0  0
   -4.1801   -3.3484   -0.8334 C   0  0  0  0  0  0  0  0  0  0  0  0
   -3.4861   -4.1791   -1.7304 C   0  0  0  0  0  0  0  0  0  0  0  0
   -2.9106   -3.6420   -2.8858 C   0  0  0  0  0  0  0  0  0  0  0  0
   -3.0252   -2.2754   -3.1553 C   0  0  0  0  0  0  0  0  0  0  0  0
   -3.7178   -1.4438   -2.2711 C   0  0  0  0  0  0  0  0  0  0  0  0
   -4.2977   -1.9770   -1.1159 C   0  0  0  0  0  0  0  0  0  0  0  0
   -1.9532   -5.0297   -0.0104 O   0  0  0  0  0  0  0  0  0  0  0  0
   -4.9132   -1.7003   -1.4090 H   0  0  0  0  0  0  0  0  0  0  0  0
   -1.5923    0.0737   -3.3138 H   0  0  0  0  0  0  0  0  0  0  0  0
   -5.3088   -4.0372   -2.0748 H   0  0  0  0  0  0  0  0  0  0  0  0
   -4.6922   -4.1466   -0.3879 H   0  0  0  0  0  0  0  0  0  0  0  0
   -4.0552   -5.2569   -1.6547 H   0  0  0  0  0  0  0  0  0  0  0  0
   -2.0431   -2.7188   -3.5357 H   0  0  0  0  0  0  0  0  0  0  0  0
   -2.6142   -4.4153   -3.4818 H   0  0  0  0  0  0  0  0  0  0  0  0
   -3.7630   -3.1003   -3.9390 H   0  0  0  0  0  0  0  0  0  0  0  0
   -0.6327   -3.3382   -1.4005 H   0  0  0  0  0  0  0  0  0  0  0  0
   -1.2641   -1.4355    0.4601 H   0  0  0  0  0  0  0  0  0  0  0  0
   -2.2060   -1.7805    2.5743 H   0  0  0  0  0  0  0  0  0  0  0  0
   -2.5373   -4.1660    2.9355 H   0  0  0  0  0  0  0  0  0  0  0  0
   -5.6038   -4.6951    0.0599 H   0  0  0  0  0  0  0  0  0  0  0  0
   -5.4157   -3.1436    0.9254 H   0  0  0  0  0  0  0  0  0  0  0  0
   -3.3999   -5.2418   -1.5407 H   0  0  0  0  0  0  0  0  0  0  0  0
   -2.3806   -4.2865   -3.5750 H   0  0  0  0  0  0  0  0  0  0  0  0
   -2.5810   -1.8615   -4.0512 H   0  0  0  0  0  0  0  0  0  0  0  0
   -3.8111   -0.3867   -2.4843 H   0  0  0  0  0  0  0  0  0  0  0  0
   -4.8455   -1.3249   -0.4470 H   0  0  0  0  0  0  0  0  0  0  0  0
   -1.7148   -5.6650   -0.7314 H   0  0  0  0  0  0  0  0  0  0  0  0
  1  2  2  0
  2  3  1  0
  3  4  1  0
  4  5  1  0
  5  6  2  0
  5  7  1  0
  4  8  1  0
  8  9  1  1
  8 10  1  0
  8 11  1  0
 12  3  1  0
 11 12  1  0
  2 13  1  0
 12 13  1  0
 13 14  1  0
 14 15  1  0
 15 16  2  0
 15 17  1  0
 17 18  1  0
 18 19  4  0
 19 20  4  0
 20 21  4  0
 21 22  4  0
 18 23  4  0
 22 23  4  0
 11 24  1  0
  4 25  1  1
  7 26  1  0
  9 27  1  0
  9 28  1  0
  9 29  1  0
 10 30  1  0
 10 31  1  0
 10 32  1  0
 11 33  1  6
 12 34  1  1
 13 35  1  1
 14 36  1  0
 17 37  1  0
 17 38  1  0
 19 39  1  0
 20 40  1  0
 21 41  1  0
 22 42  1  0
 23 43  1  0
 24 44  1  0
M  END
