
     RDKit          3D

 19 21  0  0  0  0  0  0  0  0999 V2000
   14.9327   20.0543   20.2842 C   0  0  0  0  0  0  0  0  0  0  0  0
   12.5966   19.7934   24.6516 C   0  0  0  0  0  0  0  0  0  0  0  0
   11.4213   21.0430   22.8176 C   0  0  0  0  0  0  0  0  0  0  0  0
   13.0274   18.9127   23.4685 C   0  0  0  0  0  0  0  0  0  0  0  0
   12.7904   20.9987   22.1173 C   0  0  0  0  0  0  0  0  0  0  0  0
   15.8292   19.5421   19.4321 C   0  0  0  0  0  0  0  0  0  0  0  0
   14.4502   19.2227   21.4491 C   0  0  0  0  0  0  0  0  0  0  0  0
   16.4329   16.3541   20.7273 C   0  0  0  0  0  0  0  0  0  0  0  0
   11.5506   23.1892   24.9100 O   0  0  0  0  0  0  0  0  0  0  0  0
   11.0631   21.9124   25.3834 S   0  0  0  0  0  6  0  0  0  0  0  0
   11.3940   21.4176   26.7019 O   0  0  0  0  0  0  0  0  0  0  0  0
    9.2864   21.9194   25.2399 C   0  0  0  0  0  0  0  0  0  0  0  0
   11.5191   20.7420   24.2674 N   0  0  0  0  0  0  0  0  0  0  0  0
   13.5112   19.7351   22.3395 N   0  0  0  0  0  0  0  0  0  0  0  0
   14.9054   18.0109   21.6636 N   0  0  0  0  0  0  0  0  0  0  0  0
   16.3022   18.2381   19.6516 C   0  0  0  0  0  0  0  0  0  0  0  0
   17.1614   17.4741   19.0119 N   0  0  0  0  0  0  0  0  0  0  0  0
   17.2441   16.2778   19.6947 N   0  0  0  0  0  0  0  0  0  0  0  0
   15.8123   17.5702   20.7494 N   0  0  0  0  0  0  0  0  0  0  0  0
  2  4  1  0
  3  5  1  0
  1  6  4  0
  1  7  4  0
  9 10  2  0
 10 11  2  0
 10 12  1  0
  2 13  1  0
 10 13  1  0
  3 13  1  0
  4 14  1  0
  7 14  1  0
  5 14  1  0
  7 15  4  0
  6 16  4  0
 16 17  4  0
  8 18  4  0
 17 18  4  0
  8 19  4  0
 15 19  4  0
 16 19  4  0
M  END
