7YZU_DO7_A_401
     RDKit          3D

 16 16  0  0  0  0  0  0  0  0999 V2000
   10.9860  -22.5485  -20.2479 C   0  0  0  0  0  0  0  0  0  0  0  0
    8.9089  -22.9777  -18.8232 C   0  0  1  0  0  0  0  0  0  0  0  0
    7.3939  -22.8906  -18.9339 C   0  0  1  0  0  0  0  0  0  0  0  0
    6.9123  -23.8430  -20.0263 C   0  0  2  0  0  0  0  0  0  0  0  0
    7.7050  -21.7846  -22.9841 C   0  0  0  0  0  0  0  0  0  0  0  0
    7.6164  -23.5309  -21.3458 C   0  0  1  0  0  0  0  0  0  0  0  0
    9.4739  -22.5409  -20.1651 C   0  0  2  0  0  0  0  0  0  0  0  0
    7.1009  -22.3074  -21.8031 O   0  0  0  0  0  0  0  0  0  0  0  0
    9.0212  -23.4654  -21.1675 O   0  0  0  0  0  0  0  0  0  0  0  0
   11.7325  -21.5646  -21.5304 S   0  0  2  0  0  0  0  0  0  0  0  0
   11.1847  -22.0873  -22.7469 O   0  0  0  0  0  0  0  0  0  0  0  0
   13.1844  -21.7797  -21.3468 O   0  0  0  0  0  0  0  0  0  0  0  0
   11.2449  -20.1344  -21.3311 O   0  0  0  0  0  0  0  0  0  0  0  0
    9.3825  -22.1502  -17.7813 O   0  0  0  0  0  0  0  0  0  0  0  0
    6.7591  -23.1946  -17.6921 O   0  0  0  0  0  0  0  0  0  0  0  0
    5.5008  -23.7420  -20.2306 O   0  0  0  0  0  0  0  0  0  0  0  0
  2  3  1  0
  3  4  1  0
  4  6  1  0
  7  1  1  1
  2  7  1  0
  6  8  1  1
  5  8  1  0
  7  9  1  0
  6  9  1  0
  1 10  1  0
 10 11  2  0
 10 12  2  0
 10 13  1  1
  2 14  1  1
  3 15  1  1
  4 16  1  6
M  END
