7VB8_STL_B_401
     RDKit          3D

 17 18  0  0  0  0  0  0  0  0999 V2000
   14.0418    9.1725  -32.9690 C   0  0  0  0  0  0  0  0  0  0  0  0
   15.1060    9.3184  -32.1042 C   0  0  0  0  0  0  0  0  0  0  0  0
   15.1083    8.5876  -30.9349 C   0  0  0  0  0  0  0  0  0  0  0  0
   14.0721    7.7319  -30.6375 C   0  0  0  0  0  0  0  0  0  0  0  0
   12.9777    7.5612  -31.4941 C   0  0  0  0  0  0  0  0  0  0  0  0
   13.0031    8.3044  -32.6546 C   0  0  0  0  0  0  0  0  0  0  0  0
   11.8942    6.6468  -31.1519 C   0  0  0  0  0  0  0  0  0  0  0  0
   11.4418    5.6985  -31.9131 C   0  0  0  0  0  0  0  0  0  0  0  0
   10.3555    4.7910  -31.5664 C   0  0  0  0  0  0  0  0  0  0  0  0
    9.8831    3.8124  -32.4164 C   0  0  0  0  0  0  0  0  0  0  0  0
    8.8472    2.9551  -32.0720 C   0  0  0  0  0  0  0  0  0  0  0  0
    8.2500    3.0666  -30.8353 C   0  0  0  0  0  0  0  0  0  0  0  0
    8.6999    4.0341  -29.9648 C   0  0  0  0  0  0  0  0  0  0  0  0
    9.7296    4.8739  -30.3283 C   0  0  0  0  0  0  0  0  0  0  0  0
    7.2127    2.2424  -30.4316 O   0  0  0  0  0  0  0  0  0  0  0  0
   16.1658    8.6935  -30.0130 O   0  0  0  0  0  0  0  0  0  0  0  0
   14.0051    9.9011  -34.1703 O   0  0  0  0  0  0  0  0  0  0  0  0
  1  2  2  0
  2  3  1  0
  3  4  2  0
  4  5  1  0
  1  6  1  0
  5  6  2  0
  5  7  1  0
  7  8  2  0
  8  9  1  0
  9 10  2  0
 10 11  1  0
 11 12  2  0
 12 13  1  0
  9 14  1  0
 13 14  2  0
 12 15  1  0
  3 16  1  0
  1 17  1  0
M  END
$$$$
