1X8X_TYR_A_952
     RDKit          3D

 24 24  0  0  0  0  0  0  0  0999 V2000
    6.1036   28.5732   16.8835 N   0  0  0  0  0  0  0  0  0  0  0  0
    5.4848   29.8633   16.5711 C   0  0  2  0  0  0  0  0  0  0  0  0
    4.0070   29.6777   16.3653 C   0  0  0  0  0  0  0  0  0  0  0  0
    3.2084   29.7963   17.3337 O   0  0  0  0  0  0  0  0  0  0  0  0
    6.1465   30.5087   15.3348 C   0  0  2  0  0  0  0  0  0  0  0  0
    7.3903   29.7648   14.9171 C   0  0  0  0  0  0  0  0  0  0  0  0
    7.3176   28.7356   13.9638 C   0  0  0  0  0  0  0  0  0  0  0  0
    8.6408   30.1277   15.4434 C   0  0  0  0  0  0  0  0  0  0  0  0
    8.4773   28.0698   13.5555 C   0  0  0  0  0  0  0  0  0  0  0  0
    9.7990   29.4601   15.0338 C   0  0  0  0  0  0  0  0  0  0  0  0
    9.7196   28.4282   14.0887 C   0  0  0  0  0  0  0  0  0  0  0  0
   10.8667   27.7564   13.6725 O   0  0  0  0  0  0  0  0  0  0  0  0
    3.5220   29.3414   15.1052 O   0  0  0  0  0  0  0  0  0  0  0  0
    5.7376   28.2219   17.7990 H   0  0  0  0  0  0  0  0  0  0  0  0
    5.8209   27.8813   16.1516 H   0  0  0  0  0  0  0  0  0  0  0  0
    5.6325   30.5358   17.4460 H   0  0  0  0  0  0  0  0  0  0  0  0
    6.3871   31.5749   15.5434 H   0  0  0  0  0  0  0  0  0  0  0  0
    5.4253   30.5049   14.4883 H   0  0  0  0  0  0  0  0  0  0  0  0
    6.3648   28.4518   13.5346 H   0  0  0  0  0  0  0  0  0  0  0  0
    8.7177   30.9287   16.1683 H   0  0  0  0  0  0  0  0  0  0  0  0
    8.4110   27.2767   12.8217 H   0  0  0  0  0  0  0  0  0  0  0  0
   10.7568   29.7472   15.4487 H   0  0  0  0  0  0  0  0  0  0  0  0
   11.7868   28.0271   13.9996 H   0  0  0  0  0  0  0  0  0  0  0  0
    2.5295   29.2136   14.9478 H   0  0  0  0  0  0  0  0  0  0  0  0
  2  1  1  0
  2  3  1  0
  3  4  2  0
  2  5  1  0
  5  6  1  0
  6  7  2  0
  6  8  1  0
  7  9  1  0
  8 10  2  0
  9 11  2  0
 10 11  1  0
 11 12  1  0
  3 13  1  0
  1 14  1  0
  1 15  1  0
  2 16  1  1
  5 17  1  1
  5 18  1  0
  7 19  1  0
  8 20  1  0
  9 21  1  0
 10 22  1  0
 12 23  1  0
 13 24  1  0
M  END
