8CI0_8EL_CCC_1002
     RDKit          3D

 46 47  0  0  0  0  0  0  0  0999 V2000
   66.4917   95.8458   86.8860 C   0  0  0  0  0  0  0  0  0  0  0  0
   67.3124   96.9981   87.0741 C   0  0  0  0  0  0  0  0  0  0  0  0
   68.1446   97.2961   86.0150 C   0  0  0  0  0  0  0  0  0  0  0  0
   68.1712   96.5958   84.8537 N   0  0  0  0  0  0  0  0  0  0  0  0
   66.5079   95.1334   85.7196 N   0  0  0  0  0  0  0  0  0  0  0  0
   67.3391   95.5509   84.7507 C   0  0  0  0  0  0  0  0  0  0  0  0
   69.2715   98.3635   86.0217 C   0  0  0  0  0  0  0  0  0  0  0  0
   67.3411   94.7893   83.4673 C   0  0  0  0  0  0  0  0  0  0  0  0
   71.4652  100.4549   85.7236 C   0  0  0  0  0  0  0  0  0  0  0  0
   71.7161   99.9710   87.0719 C   0  0  0  0  0  0  0  0  0  0  0  0
   68.6480   99.5545   89.4384 C   0  0  0  0  0  0  0  0  0  0  0  0
   67.3320   97.8173   88.3538 C   0  0  0  0  0  0  0  0  0  0  0  0
   69.4015   98.9410   87.3868 C   0  0  0  0  0  0  0  0  0  0  0  0
   70.4496   99.6635   87.8232 C   0  0  0  0  0  0  0  0  0  0  0  0
   65.6088   95.4549   87.8329 N   0  0  0  0  0  0  0  0  0  0  0  0
   68.4438   98.7772   88.3883 N   0  0  0  0  0  0  0  0  0  0  0  0
   68.3804   98.2161   87.8138 O   0  0  0  0  0  0  0  0  0  0  0  0
   69.6654  102.4963   87.9330 O   0  0  0  0  0  0  0  0  0  0  0  0
   66.7337  100.1518   87.8927 O   0  0  0  0  0  0  0  0  0  0  0  0
   68.7695  100.2715   89.2439 O   0  0  0  0  0  0  0  0  0  0  0  0
   68.5950  102.6447   85.5930 O   0  0  0  0  0  0  0  0  0  0  0  0
   70.8653  101.7647   85.8357 O   0  0  0  0  0  0  0  0  0  0  0  0
   68.9312  100.4466   86.7351 O   0  0  0  0  0  0  0  0  0  0  0  0
   68.1647   99.7424   87.9633 P   0  0  1  0  0  5  0  0  0  0  0  0
   69.4733  101.9425   86.5641 P   0  0  1  0  0  5  0  0  0  0  0  0
   70.2362  100.1760   89.4567 S   0  0  0  0  0  0  0  0  0  0  0  0
   68.7850   98.0996   86.1121 H   0  0  0  0  0  0  0  0  0  0  0  0
   70.1298   98.6270   85.4397 H   0  0  0  0  0  0  0  0  0  0  0  0
   69.2006   97.2981   86.0904 H   0  0  0  0  0  0  0  0  0  0  0  0
   68.3906   98.7501   85.5534 H   0  0  0  0  0  0  0  0  0  0  0  0
   66.6338   93.9886   83.5267 H   0  0  0  0  0  0  0  0  0  0  0  0
   67.0730   95.4433   82.6640 H   0  0  0  0  0  0  0  0  0  0  0  0
   68.3180   94.3898   83.2910 H   0  0  0  0  0  0  0  0  0  0  0  0
   72.3857  100.5199   85.1819 H   0  0  0  0  0  0  0  0  0  0  0  0
   70.8150   99.7866   85.1987 H   0  0  0  0  0  0  0  0  0  0  0  0
   72.3036   99.0788   87.0116 H   0  0  0  0  0  0  0  0  0  0  0  0
   72.2273  100.7461   87.6036 H   0  0  0  0  0  0  0  0  0  0  0  0
   67.9559  100.3700   89.4071 H   0  0  0  0  0  0  0  0  0  0  0  0
   68.5066   98.9685   90.3224 H   0  0  0  0  0  0  0  0  0  0  0  0
   66.4107   98.3559   88.4309 H   0  0  0  0  0  0  0  0  0  0  0  0
   67.4606   97.1401   89.1722 H   0  0  0  0  0  0  0  0  0  0  0  0
   65.5601   95.9372   88.6897 H   0  0  0  0  0  0  0  0  0  0  0  0
   65.0147   94.6880   87.6653 H   0  0  0  0  0  0  0  0  0  0  0  0
   66.2438   99.7419   88.6227 H   0  0  0  0  0  0  0  0  0  0  0  0
   69.7015  100.0075   89.2946 H   0  0  0  0  0  0  0  0  0  0  0  0
   67.7202  102.7820   85.9888 H   0  0  0  0  0  0  0  0  0  0  0  0
  1  2  4  0
  2  3  4  0
  3  4  4  0
  1  5  4  0
  5  6  4  0
  4  6  4  0
  6  8  1  0
  9 10  1  0
  2 12  1  0
  7 13  1  0
 10 14  1  0
 13 14  2  0
  1 15  1  0
 11 16  1  0
 12 16  1  0
 13 16  1  0
  9 22  1  0
 17 24  2  0
 24 20  1  6
 23 24  1  0
 19 24  1  0
 18 25  2  0
 25 23  1  6
 25 21  1  0
 22 25  1  0
 11 26  1  0
 14 26  1  0
  3 27  1  0
  7 28  1  0
  7 29  1  0
  7 30  1  0
  8 31  1  0
  8 32  1  0
  8 33  1  0
  9 34  1  0
  9 35  1  0
 10 36  1  0
 10 37  1  0
 11 38  1  0
 11 39  1  0
 12 40  1  0
 12 41  1  0
 15 42  1  0
 15 43  1  0
 19 44  1  0
 20 45  1  0
 21 46  1  0
M  END
