
     RDKit          3D

 10  9  0  0  0  0  0  0  0  0999 V2000
   36.7746   15.5396   58.8833 C   0  0  0  0  0  0  0  0  0  0  0  0
   37.8769   16.6384   58.8548 C   0  0  0  0  0  0  0  0  0  0  0  0
   39.8769   17.4083   60.0641 C   0  0  0  0  0  0  0  0  0  0  0  0
   41.0226   16.4787   59.6841 C   0  0  0  0  0  0  0  0  0  0  0  0
   36.2056   15.1241   59.8707 O   0  0  0  0  0  0  0  0  0  0  0  0
   36.4980   15.0718   57.6515 O   0  0  0  0  0  0  0  0  0  0  0  0
   38.0558   17.3306   57.8651 O   0  0  0  0  0  0  0  0  0  0  0  0
   40.6828   15.1724   59.6253 O   0  0  0  0  0  0  0  0  0  0  0  0
   38.5801   16.7555   60.0397 N   0  0  0  0  0  0  0  0  0  0  0  0
   42.1577   16.8270   59.3984 O   0  0  0  0  0  0  0  0  0  0  0  0
  1  2  1  0
  3  4  1  0
  1  5  2  0
  1  6  1  0
  2  7  2  0
  4  8  1  0
  2  9  1  0
  3  9  1  0
  4 10  2  0
M  END
