7WQQ_5Z6_A_501
     RDKit          3D

 27 28  0  0  0  0  0  0  0  0999 V2000
   29.5862   -5.5619    9.5412 C   0  0  0  0  0  0  0  0  0  0  0  0
   31.4278   -3.4208   11.9168 C   0  0  0  0  0  0  0  0  0  0  0  0
   31.6189   -4.3373   14.1158 C   0  0  0  0  0  0  0  0  0  0  0  0
   30.5419   -5.5563   12.3268 C   0  0  0  0  0  0  0  0  0  0  0  0
   28.3730   -6.8584    6.2250 C   0  0  0  0  0  0  0  0  0  0  0  0
   27.5277   -7.7807    5.6404 C   0  0  0  0  0  0  0  0  0  0  0  0
   26.2705   -8.1195    3.5821 C   0  0  0  0  0  0  0  0  0  0  0  0
   28.3421   -9.3538    3.9331 C   0  0  0  0  0  0  0  0  0  0  0  0
   25.6731  -10.3717    8.5019 C   0  0  0  0  0  0  0  0  0  0  0  0
   25.5326   -8.8906    8.5916 C   0  0  2  0  0  0  0  0  0  0  0  0
   25.7454   -8.4711   10.0312 C   0  0  0  0  0  0  0  0  0  0  0  0
   24.1544   -8.4257    8.1744 C   0  0  0  0  0  0  0  0  0  0  0  0
   26.5208   -8.1860    7.7583 C   0  0  0  0  0  0  0  0  0  0  0  0
   27.3600   -7.2743    8.3234 C   0  0  0  0  0  0  0  0  0  0  0  0
   28.2977   -6.5950    7.5765 C   0  0  0  0  0  0  0  0  0  0  0  0
   29.2157   -5.6127    8.1333 C   0  0  0  0  0  0  0  0  0  0  0  0
   30.3381   -4.6233   10.0553 C   0  0  0  0  0  0  0  0  0  0  0  0
   30.7675   -4.5325   11.4251 C   0  0  0  0  0  0  0  0  0  0  0  0
   31.8482   -3.3126   13.2258 C   0  0  0  0  0  0  0  0  0  0  0  0
   32.0774   -4.1883   15.4918 C   0  0  0  0  0  0  0  0  0  0  0  0
   30.9636   -5.4578   13.6563 C   0  0  0  0  0  0  0  0  0  0  0  0
   27.6444   -8.0348    4.1721 C   0  0  2  0  0  0  0  0  0  0  0  0
   28.4361   -6.8899    3.5826 C   0  0  0  0  0  0  0  0  0  0  0  0
   26.5976   -8.4483    6.4064 C   0  0  0  0  0  0  0  0  0  0  0  0
   29.7137   -4.7632    7.3510 O   0  0  0  0  0  0  0  0  0  0  0  0
   31.9951   -5.1714   16.2544 O   0  0  0  0  0  0  0  0  0  0  0  0
   32.5966   -3.0154   15.9896 O   0  0  0  0  0  0  0  0  0  0  0  0
  5  6  2  0
  9 10  1  1
 11 10  1  6
 12 10  1  6
 10 13  1  6
 13 14  1  0
  5 15  1  0
 14 15  2  0
 15 16  1  0
  1 16  1  0
  1 17  2  0
 17 18  1  0
  4 18  1  0
  2 18  2  0
  2 19  1  0
  3 19  2  0
  3 20  1  0
  4 21  2  0
  3 21  1  0
  7 22  1  6
  8 22  1  6
 22  6  1  1
 23 22  1  1
  6 24  1  0
 13 24  2  0
 16 25  2  0
 20 26  2  0
 20 27  1  0
M  END
$$$$
