7SED_8VD_A_401
     RDKit          3D

 17 18  0  0  0  0  0  0  0  0999 V2000
   19.6698   25.0350    9.5840 C   0  0  0  0  0  0  0  0  0  0  0  0
   22.5508   28.0413   13.0468 N   0  0  0  0  0  0  0  0  0  0  0  0
   20.7738   28.1331   11.3256 C   0  0  0  0  0  0  0  0  0  0  0  0
   21.5275   25.9431   12.2353 C   0  0  0  0  0  0  0  0  0  0  0  0
   19.7800   26.0563   10.4866 N   0  0  0  0  0  0  0  0  0  0  0  0
   21.5805   22.5622    7.4717 C   0  0  1  0  0  0  0  0  0  0  0  0
   20.4908   23.4173    8.0618 C   0  0  0  0  0  0  0  0  0  0  0  0
   20.7688   24.3543    9.0644 C   0  0  0  0  0  0  0  0  0  0  0  0
   21.0079   26.6641   11.0073 C   0  0  1  0  0  0  0  0  0  0  0  0
   22.7938   26.6142   12.7471 C   0  0  0  0  0  0  0  0  0  0  0  0
   22.0434   28.7741   11.8651 C   0  0  0  0  0  0  0  0  0  0  0  0
   18.3108   23.8662    8.1878 C   0  0  0  0  0  0  0  0  0  0  0  0
   21.2008   21.3150    7.2986 F   0  0  0  0  0  0  0  0  0  0  0  0
   21.9291   22.9664    6.2624 F   0  0  0  0  0  0  0  0  0  0  0  0
   22.6633   22.5352    8.2273 F   0  0  0  0  0  0  0  0  0  0  0  0
   18.4270   24.7787    9.1524 N   0  0  0  0  0  0  0  0  0  0  0  0
   19.2706   23.1639    7.5779 N   0  0  0  0  0  0  0  0  0  0  0  0
  1  5  1  0
  6  7  1  0
  7  8  2  0
  1  8  1  0
  9  5  1  1
  3  9  1  0
  4  9  1  0
  4 10  1  0
  2 10  1  0
  3 11  1  0
  2 11  1  0
  6 13  1  6
  6 14  1  0
  6 15  1  0
 12 16  1  0
  1 16  2  0
 12 17  2  0
  7 17  1  0
M  END
