7NB4_U6Q_A_401
     RDKit          3D

 31 34  0  0  0  0  0  0  0  0999 V2000
    8.0096    0.9219    0.9812 C   0  0  0  0  0  0  0  0  0  0  0  0
    7.0788    1.4369   -0.0727 C   0  0  0  0  0  0  0  0  0  0  0  0
    6.9657    0.5318   -1.2597 C   0  0  0  0  0  0  0  0  0  0  0  0
    6.1747    0.6632   -2.3892 C   0  0  0  0  0  0  0  0  0  0  0  0
    6.2792   -0.3139   -3.3092 C   0  0  0  0  0  0  0  0  0  0  0  0
    7.1415   -1.3298   -3.0484 C   0  0  0  0  0  0  0  0  0  0  0  0
    7.8622   -0.9722   -1.4870 S   0  0  0  0  0  0  0  0  0  0  0  0
    7.3943   -2.3955   -3.8347 N   0  0  0  0  0  0  0  0  0  0  0  0
    6.7421   -2.5008   -5.0148 C   0  0  0  0  0  0  0  0  0  0  0  0
    5.8931   -1.5417   -5.3187 N   0  0  0  0  0  0  0  0  0  0  0  0
    5.6108   -0.4530   -4.5539 C   0  0  0  0  0  0  0  0  0  0  0  0
    4.6783    0.4522   -5.0629 N   0  0  0  0  0  0  0  0  0  0  0  0
    4.0854    0.2311   -6.3838 C   0  0  2  0  0  0  0  0  0  0  0  0
    3.5771    1.4591   -7.0462 C   0  0  0  0  0  0  0  0  0  0  0  0
    4.6235    2.4663   -7.3603 C   0  0  0  0  0  0  0  0  0  0  0  0
    5.6285    2.2018   -8.2664 C   0  0  0  0  0  0  0  0  0  0  0  0
    6.6160    3.1230   -8.5750 C   0  0  0  0  0  0  0  0  0  0  0  0
    6.5963    4.3520   -7.9546 C   0  0  0  0  0  0  0  0  0  0  0  0
    5.5871    4.6130   -7.0468 C   0  0  0  0  0  0  0  0  0  0  0  0
    4.5996    3.6991   -6.7345 C   0  0  0  0  0  0  0  0  0  0  0  0
    2.9683   -0.7477   -6.2489 C   0  0  0  0  0  0  0  0  0  0  0  0
    2.3539   -0.9303   -5.1602 O   0  0  0  0  0  0  0  0  0  0  0  0
    2.5738   -1.4942   -7.3413 O   0  0  0  0  0  0  0  0  0  0  0  0
    5.3048    1.8955   -2.4326 C   0  0  0  0  0  0  0  0  0  0  0  0
    5.8356    3.0976   -2.8545 C   0  0  0  0  0  0  0  0  0  0  0  0
    7.2395    3.2512   -3.2408 C   0  0  0  0  0  0  0  0  0  0  0  0
    4.9940    4.1888   -2.9053 C   0  0  0  0  0  0  0  0  0  0  0  0
    5.6237    5.7421   -3.4373 Cl  0  0  0  0  0  0  0  0  0  0  0  0
    3.6533    4.0691   -2.5401 C   0  0  0  0  0  0  0  0  0  0  0  0
    3.1327    2.8536   -2.1173 C   0  0  0  0  0  0  0  0  0  0  0  0
    3.9581    1.7698   -2.0642 C   0  0  0  0  0  0  0  0  0  0  0  0
  1  2  1  1
  2  3  1  1
  3  4  2  0
  4  5  1  0
  5  6  2  0
  6  7  1  0
  3  7  1  0
  6  8  1  0
  8  9  2  0
  9 10  1  0
 10 11  2  0
  5 11  1  0
 11 12  1  0
 13 12  1  1
 13 14  1  0
 14 15  1  6
 15 16  2  0
 16 17  1  0
 17 18  2  0
 18 19  1  0
 15 20  1  0
 19 20  2  0
 13 21  1  0
 21 22  2  0
 21 23  1  0
  4 24  1  0
 24 25  2  0
 26 25  1  1
 25 27  1  0
 27 28  1  0
 27 29  2  0
 29 30  1  0
 24 31  1  0
 30 31  2  0
M  END
$$$$
