8EXL_799_A_1101
     RDKit          3D

 62 66  0  0  0  0  0  0  0  0999 V2000
  -26.5021   14.5389   32.2249 C   0  0  0  0  0  0  0  0  0  0  0  0
  -25.0018   14.6319   32.4690 C   0  0  2  0  0  0  0  0  0  0  0  0
  -24.6606   14.2963   33.9344 C   0  0  1  0  0  0  0  0  0  0  0  0
  -24.5643   16.0809   32.1665 C   0  0  2  0  0  0  0  0  0  0  0  0
  -22.9956   13.7341   31.2196 C   0  0  0  0  0  0  0  0  0  0  0  0
  -21.3847   12.2093   29.9103 C   0  0  0  0  0  0  0  0  0  0  0  0
  -16.5490   13.2611   29.7418 C   0  0  2  0  0  0  0  0  0  0  0  0
  -16.2563   13.1494   28.2595 C   0  0  1  0  0  0  0  0  0  0  0  0
  -15.7092   11.0121   27.1113 C   0  0  0  0  0  0  0  0  0  0  0  0
  -18.8893   11.4952   28.7495 C   0  0  0  0  0  0  0  0  0  0  0  0
  -20.0506   10.7243   28.5329 C   0  0  0  0  0  0  0  0  0  0  0  0
  -17.7781    7.1918   25.6381 C   0  0  1  0  0  0  0  0  0  0  0  0
  -18.6467    8.0978   26.5157 C   0  0  1  0  0  0  0  0  0  0  0  0
  -18.2675    7.1063   24.1869 C   0  0  2  0  0  0  0  0  0  0  0  0
  -27.1117   15.3023   31.1802 N   0  0  0  0  0  0  0  0  0  0  0  0
  -27.2314   13.8172   32.9591 O   0  0  0  0  0  0  0  0  0  0  0  0
  -24.2919   13.6755   31.5958 N   0  0  0  0  0  0  0  0  0  0  0  0
  -22.6893   12.5864   30.5110 C   0  0  0  0  0  0  0  0  0  0  0  0
  -23.8628   11.8506   30.5142 C   0  0  0  0  0  0  0  0  0  0  0  0
  -24.8105   12.5237   31.1927 N   0  0  0  0  0  0  0  0  0  0  0  0
  -20.2382   12.9826   30.1427 C   0  0  0  0  0  0  0  0  0  0  0  0
  -18.9933   12.6411   29.5949 C   0  0  0  0  0  0  0  0  0  0  0  0
  -17.9329   13.4906   29.9484 O   0  0  0  0  0  0  0  0  0  0  0  0
  -16.5418   11.7936   27.8200 N   0  0  0  0  0  0  0  0  0  0  0  0
  -16.3320    9.8023   26.9060 C   0  0  0  0  0  0  0  0  0  0  0  0
  -17.5374    9.8160   27.5024 N   0  0  0  0  0  0  0  0  0  0  0  0
  -17.6481   11.0494   28.0471 C   0  0  0  0  0  0  0  0  0  0  0  0
  -21.2735   11.0719   29.1033 C   0  0  0  0  0  0  0  0  0  0  0  0
  -15.7205    8.6387   26.2350 C   0  0  0  0  0  0  0  0  0  0  0  0
  -14.3870    8.5661   26.0432 N   0  0  0  0  0  0  0  0  0  0  0  0
  -14.2456    7.3837   25.4145 C   0  0  0  0  0  0  0  0  0  0  0  0
  -12.9261    6.8048   25.0323 C   0  0  2  0  0  0  0  0  0  0  0  0
  -15.4170    6.7513   25.2321 N   0  0  0  0  0  0  0  0  0  0  0  0
  -16.3508    7.5411   25.7355 N   0  0  0  0  0  0  0  0  0  0  0  0
  -25.5818   14.0795   34.5175 H   0  0  0  0  0  0  0  0  0  0  0  0
  -23.9904   13.4111   33.9808 H   0  0  0  0  0  0  0  0  0  0  0  0
  -24.1378   15.1505   34.4160 H   0  0  0  0  0  0  0  0  0  0  0  0
  -25.4101   16.7844   32.3234 H   0  0  0  0  0  0  0  0  0  0  0  0
  -24.2116   16.1855   31.1189 H   0  0  0  0  0  0  0  0  0  0  0  0
  -23.7266   16.3829   32.8329 H   0  0  0  0  0  0  0  0  0  0  0  0
  -22.3203   14.5446   31.4536 H   0  0  0  0  0  0  0  0  0  0  0  0
  -15.9899   14.1264   30.1566 H   0  0  0  0  0  0  0  0  0  0  0  0
  -16.2241   12.3492   30.2897 H   0  0  0  0  0  0  0  0  0  0  0  0
  -16.8715   13.8718   27.6806 H   0  0  0  0  0  0  0  0  0  0  0  0
  -15.1837   13.3875   28.0837 H   0  0  0  0  0  0  0  0  0  0  0  0
  -14.7195   11.2981   26.7776 H   0  0  0  0  0  0  0  0  0  0  0  0
  -20.0250    9.8479   27.8971 H   0  0  0  0  0  0  0  0  0  0  0  0
  -17.8981    6.1647   26.0524 H   0  0  0  0  0  0  0  0  0  0  0  0
  -18.2505    9.1258   26.5810 H   0  0  0  0  0  0  0  0  0  0  0  0
  -19.6766    8.1477   26.1023 H   0  0  0  0  0  0  0  0  0  0  0  0
  -18.7040    7.6793   27.5432 H   0  0  0  0  0  0  0  0  0  0  0  0
  -18.8997    6.2015   24.0609 H   0  0  0  0  0  0  0  0  0  0  0  0
  -17.4000    7.0218   23.4975 H   0  0  0  0  0  0  0  0  0  0  0  0
  -18.8787    7.9790   23.8941 H   0  0  0  0  0  0  0  0  0  0  0  0
  -26.8747   15.1279   30.1779 H   0  0  0  0  0  0  0  0  0  0  0  0
  -27.8002   16.0531   31.4102 H   0  0  0  0  0  0  0  0  0  0  0  0
  -24.0170   10.8723   30.0807 H   0  0  0  0  0  0  0  0  0  0  0  0
  -20.2925   13.8549   30.7807 H   0  0  0  0  0  0  0  0  0  0  0  0
  -22.1361   10.4548   28.8898 H   0  0  0  0  0  0  0  0  0  0  0  0
  -12.1053    7.3961   25.4896 H   0  0  0  0  0  0  0  0  0  0  0  0
  -12.8201    6.8246   23.9281 H   0  0  0  0  0  0  0  0  0  0  0  0
  -12.8555    5.7560   25.3884 H   0  0  0  0  0  0  0  0  0  0  0  0
  1  2  1  0
  2  3  1  0
  2  4  1  0
  7  8  1  0
 10 11  2  0
 12 13  1  0
 12 14  1  0
  1 15  1  0
  1 16  2  0
  5 17  1  0
  2 17  1  6
  6 18  1  0
  5 18  2  0
 18 19  1  0
 19 20  2  0
 17 20  1  0
  6 21  1  0
 10 22  1  0
 21 22  2  0
 22 23  1  0
  7 23  1  0
  9 24  1  0
  8 24  1  0
  9 25  2  0
 25 26  1  0
 26 27  2  0
 24 27  1  0
 10 27  1  0
 11 28  1  0
  6 28  2  0
 25 29  1  0
 29 30  2  0
 30 31  1  0
 31 32  1  0
 31 33  2  0
 33 34  1  0
 12 34  1  0
 29 34  1  0
  3 35  1  1
  3 36  1  0
  3 37  1  0
  4 38  1  6
  4 39  1  0
  4 40  1  0
  5 41  1  0
  7 42  1  1
  7 43  1  0
  8 44  1  6
  8 45  1  0
  9 46  1  0
 11 47  1  0
 12 48  1  1
 13 49  1  1
 13 50  1  0
 13 51  1  0
 14 52  1  1
 14 53  1  0
 14 54  1  0
 15 55  1  0
 15 56  1  0
 19 57  1  0
 21 58  1  0
 28 59  1  0
 32 60  1  1
 32 61  1  0
 32 62  1  0
M  END
