7OKF_VH5_A_201
     RDKit          3D

 28 31  0  0  0  0  0  0  0  0999 V2000
  -36.3103   27.3095    8.4148 C   0  0  0  0  0  0  0  0  0  0  0  0
  -36.3597   27.7071    9.7617 C   0  0  0  0  0  0  0  0  0  0  0  0
  -35.2640   28.4083   10.2000 C   0  0  0  0  0  0  0  0  0  0  0  0
  -34.1786   28.7123    9.3869 C   0  0  0  0  0  0  0  0  0  0  0  0
  -37.7430   27.6843   11.8642 C   0  0  0  0  0  0  0  0  0  0  0  0
  -37.7265   26.8134   12.9129 C   0  0  0  0  0  0  0  0  0  0  0  0
  -38.3371   28.4872   14.4939 C   0  0  0  0  0  0  0  0  0  0  0  0
  -38.3582   29.3802   13.4508 C   0  0  0  0  0  0  0  0  0  0  0  0
  -38.9723   31.0275   15.0382 C   0  0  0  0  0  0  0  0  0  0  0  0
  -37.3879   26.5697    7.8266 C   0  0  0  0  0  0  0  0  0  0  0  0
  -38.2727   25.9790    7.3452 N   0  0  0  0  0  0  0  0  0  0  0  0
  -34.1807   28.3033    8.0871 N   0  0  0  0  0  0  0  0  0  0  0  0
  -35.2381   27.6078    7.6066 C   0  0  0  0  0  0  0  0  0  0  0  0
  -35.2143   27.0944    5.9333 Cl  0  0  0  0  0  0  0  0  0  0  0  0
  -37.4873   27.3868   10.5242 N   0  0  0  0  0  0  0  0  0  0  0  0
  -38.0735   29.0105   12.1695 C   0  0  0  0  0  0  0  0  0  0  0  0
  -38.6819   30.6798   13.7249 C   0  0  0  0  0  0  0  0  0  0  0  0
  -38.7299   31.7206   12.7625 N   0  0  0  0  0  0  0  0  0  0  0  0
  -39.5496   31.7413   11.6007 C   0  0  0  0  0  0  0  0  0  0  0  0
  -40.1261   33.0905   11.2801 C   0  0  0  0  0  0  0  0  0  0  0  0
  -39.2005   34.1675   11.5584 N   0  0  0  0  0  0  0  0  0  0  0  0
  -39.2374   35.1477   10.4832 C   0  0  0  0  0  0  0  0  0  0  0  0
  -37.8480   33.6777   11.7467 C   0  0  0  0  0  0  0  0  0  0  0  0
  -37.8464   32.8673   13.0224 C   0  0  0  0  0  0  0  0  0  0  0  0
  -38.9439   30.1084   16.0677 C   0  0  0  0  0  0  0  0  0  0  0  0
  -39.2116   30.4638   17.2325 O   0  0  0  0  0  0  0  0  0  0  0  0
  -38.6191   28.8412   15.7486 N   0  0  0  0  0  0  0  0  0  0  0  0
  -38.0188   27.1904   14.2275 C   0  0  0  0  0  0  0  0  0  0  0  0
  1  2  2  0
  2  3  1  0
  3  4  2  0
  5  6  2  0
  7  8  1  0
  1 10  1  0
 10 11  3  0
  4 12  1  0
 12 13  2  0
  1 13  1  0
 13 14  1  0
  2 15  1  0
  5 15  1  0
  5 16  1  0
  8 16  2  0
  8 17  1  0
  9 17  2  0
 17 18  1  0
 19 18  1  6
 19 20  1  0
 20 21  1  6
 22 21  1  1
 23 21  1  1
 24 18  1  1
 23 24  1  0
  9 25  1  0
 25 26  2  0
  7 27  1  0
 25 27  1  0
  6 28  1  0
  7 28  2  0
M  END
$$$$
