2BSM_BSM_A_1224
     RDKit          3D

 45 47  0  0  0  0  0  0  0  0999 V2000
   -2.9879   -3.8282    3.8989 C   0  0  0  0  0  0  0  0  0  0  0  0
   -1.9343   -2.8744    3.9869 O   0  0  0  0  0  0  0  0  0  0  0  0
   -1.3970   -2.1852    2.8897 C   0  0  0  0  0  0  0  0  0  0  0  0
   -1.8599   -2.3809    1.5744 C   0  0  0  0  0  0  0  0  0  0  0  0
   -1.2920   -1.6681    0.5145 C   0  0  0  0  0  0  0  0  0  0  0  0
   -0.3643   -1.2689    3.1205 C   0  0  0  0  0  0  0  0  0  0  0  0
    0.2021   -0.5548    2.0610 C   0  0  0  0  0  0  0  0  0  0  0  0
   -0.2534   -0.7551    0.7499 C   0  0  0  0  0  0  0  0  0  0  0  0
    0.3157    0.0270   -0.3668 C   0  0  0  0  0  0  0  0  0  0  0  0
    1.6515    0.1601   -0.7358 C   0  0  0  0  0  0  0  0  0  0  0  0
    2.8255   -0.5041   -0.1356 C   0  0  0  0  0  0  0  0  0  0  0  0
    2.6656   -1.4356    0.6983 O   0  0  0  0  0  0  0  0  0  0  0  0
    4.1509   -0.1052   -0.5173 N   0  0  0  0  0  0  0  0  0  0  0  0
    5.3490   -0.7605    0.0036 C   0  0  0  0  0  0  0  0  0  0  0  0
    5.5476   -2.1202   -0.6572 C   0  0  0  0  0  0  0  0  0  0  0  0
    1.7348    0.9540   -1.8228 N   0  0  0  0  0  0  0  0  0  0  0  0
    0.5095    1.3233   -2.1581 N   0  0  0  0  0  0  0  0  0  0  0  0
   -0.3781    0.7802   -1.3038 C   0  0  0  0  0  0  0  0  0  0  0  0
   -1.8367    1.0289   -1.3553 C   0  0  0  0  0  0  0  0  0  0  0  0
   -2.5389    1.3324   -0.1765 C   0  0  0  0  0  0  0  0  0  0  0  0
   -3.9168    1.5665   -0.2089 C   0  0  0  0  0  0  0  0  0  0  0  0
   -4.7645    1.9342    1.2851 Cl  0  0  0  0  0  0  0  0  0  0  0  0
   -4.6089    1.5102   -1.4250 C   0  0  0  0  0  0  0  0  0  0  0  0
   -5.9825    1.7459   -1.4562 O   0  0  0  0  0  0  0  0  0  0  0  0
   -3.9148    1.2168   -2.6057 C   0  0  0  0  0  0  0  0  0  0  0  0
   -2.5342    0.9728   -2.5776 C   0  0  0  0  0  0  0  0  0  0  0  0
   -1.8618    0.6558   -3.7580 O   0  0  0  0  0  0  0  0  0  0  0  0
   -3.9026   -3.3498    3.4894 H   0  0  0  0  0  0  0  0  0  0  0  0
   -2.6800   -4.6789    3.2549 H   0  0  0  0  0  0  0  0  0  0  0  0
   -3.2130   -4.2144    4.9141 H   0  0  0  0  0  0  0  0  0  0  0  0
   -2.6579   -3.0787    1.3609 H   0  0  0  0  0  0  0  0  0  0  0  0
   -1.6616   -1.8295   -0.4908 H   0  0  0  0  0  0  0  0  0  0  0  0
   -0.0034   -1.1048    4.1279 H   0  0  0  0  0  0  0  0  0  0  0  0
    0.9866    0.1637    2.2649 H   0  0  0  0  0  0  0  0  0  0  0  0
    4.2761    0.7229   -1.1422 H   0  0  0  0  0  0  0  0  0  0  0  0
    6.2367   -0.1271   -0.2119 H   0  0  0  0  0  0  0  0  0  0  0  0
    5.2712   -0.8774    1.1062 H   0  0  0  0  0  0  0  0  0  0  0  0
    5.6216   -2.0005   -1.7590 H   0  0  0  0  0  0  0  0  0  0  0  0
    6.4854   -2.5823   -0.2833 H   0  0  0  0  0  0  0  0  0  0  0  0
    4.7000   -2.7965   -0.4200 H   0  0  0  0  0  0  0  0  0  0  0  0
    0.2933    1.9631   -2.9543 H   0  0  0  0  0  0  0  0  0  0  0  0
   -2.0150    1.4011    0.7687 H   0  0  0  0  0  0  0  0  0  0  0  0
   -6.5072    1.7113   -2.3224 H   0  0  0  0  0  0  0  0  0  0  0  0
   -4.4501    1.1705   -3.5458 H   0  0  0  0  0  0  0  0  0  0  0  0
   -2.3443    0.6040   -4.6474 H   0  0  0  0  0  0  0  0  0  0  0  0
  1  2  1  0
  2  3  1  0
  3  4  2  0
  4  5  1  0
  3  6  1  0
  6  7  2  0
  5  8  2  0
  7  8  1  0
  8  9  1  0
  9 10  1  0
 10 11  1  0
 11 12  2  0
 11 13  1  0
 13 14  1  0
 14 15  1  0
 10 16  2  0
 16 17  1  0
  9 18  2  0
 17 18  1  0
 18 19  1  0
 19 20  2  0
 20 21  1  0
 21 22  1  0
 21 23  2  0
 23 24  1  0
 23 25  1  0
 19 26  1  0
 25 26  2  0
 26 27  1  0
  1 28  1  0
  1 29  1  0
  1 30  1  0
  4 31  1  0
  5 32  1  0
  6 33  1  0
  7 34  1  0
 13 35  1  0
 14 36  1  0
 14 37  1  0
 15 38  1  0
 15 39  1  0
 15 40  1  0
 17 41  1  0
 20 42  1  0
 24 43  1  0
 25 44  1  0
 27 45  1  0
M  END
