@<TRIPOS>MOLECULE
2BSM_BSM_A_1224
 45 47 0 0 0
SMALL
GASTEIGER

@<TRIPOS>ATOM
      1 C          35.0300    5.5210   21.5590 C.3     1  UNL1        0.0788
      2 O          35.4700    6.0780   22.7990 O.3     1  UNL1       -0.4951
      3 C          34.4740    6.6820   23.5620 C.ar    1  UNL1        0.1201
      4 C          33.1400    6.8550   23.1240 C.ar    1  UNL1       -0.0194
      5 C          32.1930    7.4710   23.9890 C.ar    1  UNL1       -0.0504
      6 C          34.8200    7.1250   24.8320 C.ar    1  UNL1       -0.0194
      7 C          33.8950    7.7530   25.6730 C.ar    1  UNL1       -0.0504
      8 C          32.5790    7.9360   25.2640 C.ar    1  UNL1       -0.0134
      9 C          31.6570    8.5710   26.1310 C.ar    1  UNL1        0.0397
     10 C          31.3230    8.1960   27.4090 C.ar    1  UNL1        0.1551
     11 C          31.8440    7.0080   28.2280 C.2     1  UNL1        0.2648
     12 O          32.3840    6.0480   27.7010 O.2     1  UNL1       -0.2684
     13 N          31.6730    7.1410   29.5480 N.am    1  UNL1       -0.3103
     14 C          32.0460    6.1200   30.5660 C.3     1  UNL1        0.0091
     15 C          33.4590    5.5720   30.3570 C.3     1  UNL1       -0.0495
     16 N          30.4190    9.0730   27.8520 N.ar    1  UNL1       -0.1680
     17 N          30.1470    9.9480   26.9810 N.ar    1  UNL1       -0.2755
     18 C          30.8870    9.7460   25.8920 C.ar    1  UNL1        0.0777
     19 C          30.8960   10.5090   24.7240 C.ar    1  UNL1        0.0434
     20 C          32.0850   11.0070   24.2240 C.ar    1  UNL1       -0.0272
     21 C          32.0980   11.7910   23.0590 C.ar    1  UNL1        0.0831
     22 CL         33.5840   12.4180   22.4400 Cl      1  UNL1       -0.0797
     23 C          30.9090   12.0920   22.4120 C.ar    1  UNL1        0.1386
     24 O          30.9180   12.8280   21.2740 O.3     1  UNL1       -0.5052
     25 C          29.7020   11.5950   22.9230 C.ar    1  UNL1        0.0234
     26 C          29.7050   10.8360   24.0920 C.ar    1  UNL1        0.1296
     27 O          28.5470   10.3880   24.5870 O.3     1  UNL1       -0.5060
     28 H          35.8626    5.0830   21.0493 H       1  UNL1        0.0660
     29 H          34.6060    6.2932   20.9516 H       1  UNL1        0.0660
     30 H          34.2918    4.7697   21.7474 H       1  UNL1        0.0660
     31 H          32.8559    6.5368   22.1843 H       1  UNL1        0.0654
     32 H          31.2140    7.5788   23.6808 H       1  UNL1        0.0625
     33 H          35.7871    6.9870   25.1648 H       1  UNL1        0.0654
     34 H          34.1920    8.0831   26.6046 H       1  UNL1        0.0625
     35 H          31.2693    7.9786   29.8716 H       1  UNL1        0.1490
     36 H          31.3513    5.3083   30.5082 H       1  UNL1        0.0459
     37 H          32.0198    6.5932   31.5253 H       1  UNL1        0.0459
     38 H          33.5175    5.0911   29.4030 H       1  UNL1        0.0245
     39 H          33.6848    4.8646   31.1274 H       1  UNL1        0.0245
     40 H          34.1629    6.3770   30.3944 H       1  UNL1        0.0245
     41 H          29.4872   10.6704   27.0911 H       1  UNL1        0.1889
     42 H          32.9710   10.8007   24.7114 H       1  UNL1        0.0641
     43 H          31.7271   13.1582   20.9360 H       1  UNL1        0.2922
     44 H          28.8139   11.7905   22.4351 H       1  UNL1        0.0691
     45 H          28.5396    9.8770   25.3724 H       1  UNL1        0.2922
@<TRIPOS>BOND
     1     1     2    1
     2     2     3    1
     3     3     4   ar
     4     4     5   ar
     5     3     6   ar
     6     6     7   ar
     7     5     8   ar
     8     7     8   ar
     9     8     9    1
    10     9    10   ar
    11    10    11    1
    12    11    12    2
    13    11    13   am
    14    13    14    1
    15    14    15    1
    16    10    16   ar
    17    16    17   ar
    18     9    18   ar
    19    17    18   ar
    20    18    19    1
    21    19    20   ar
    22    20    21   ar
    23    21    22    1
    24    21    23   ar
    25    23    24    1
    26    23    25   ar
    27    19    26   ar
    28    25    26   ar
    29    26    27    1
    30     1    28    1
    31     1    29    1
    32     1    30    1
    33     4    31    1
    34     5    32    1
    35     6    33    1
    36     7    34    1
    37    13    35    1
    38    14    36    1
    39    14    37    1
    40    15    38    1
    41    15    39    1
    42    15    40    1
    43    17    41    1
    44    20    42    1
    45    24    43    1
    46    25    44    1
    47    27    45    1
