7XPO_UPG_B_402
     RDKit          3D

 36 38  0  0  0  0  0  0  0  0999 V2000
  -11.0768   -8.6529   11.1734 N   0  0  0  0  0  0  0  0  0  0  0  0
  -10.1171   -8.1156   10.3733 C   0  0  0  0  0  0  0  0  0  0  0  0
  -10.3645   -7.8266    9.0904 N   0  0  0  0  0  0  0  0  0  0  0  0
  -11.5916   -8.0802    8.6040 C   0  0  0  0  0  0  0  0  0  0  0  0
  -12.5996   -8.6239    9.3727 C   0  0  0  0  0  0  0  0  0  0  0  0
  -12.3094   -8.9070   10.6826 C   0  0  0  0  0  0  0  0  0  0  0  0
   -8.9778   -7.8947   10.8753 O   0  0  0  0  0  0  0  0  0  0  0  0
  -11.8119   -7.8024    7.3908 O   0  0  0  0  0  0  0  0  0  0  0  0
  -10.7876   -8.9568   12.5544 C   0  0  1  0  0  0  0  0  0  0  0  0
  -11.5289   -8.1243   13.5489 C   0  0  2  0  0  0  0  0  0  0  0  0
  -10.7117   -7.2730   14.2705 O   0  0  0  0  0  0  0  0  0  0  0  0
  -12.0493   -9.1950   14.5022 C   0  0  1  0  0  0  0  0  0  0  0  0
  -12.2504  -10.3493   13.5415 C   0  0  2  0  0  0  0  0  0  0  0  0
  -11.0990  -10.2830   12.7694 O   0  0  0  0  0  0  0  0  0  0  0  0
  -11.0090   -9.5522   15.3576 O   0  0  0  0  0  0  0  0  0  0  0  0
  -13.5055  -10.1722   12.7488 C   0  0  0  0  0  0  0  0  0  0  0  0
  -14.5927  -10.3886   13.5961 O   0  0  0  0  0  0  0  0  0  0  0  0
  -16.0080  -10.6908   12.7596 P   0  0  2  0  0  5  0  0  0  0  0  0
  -15.6839  -11.6924   11.6586 O   0  0  0  0  0  0  0  0  0  0  0  0
  -16.6185   -9.2940   12.0281 O   0  0  0  0  0  0  0  0  0  0  0  0
  -17.1594  -11.4124   13.7619 O   0  0  0  0  0  0  0  0  0  0  0  0
  -17.5059  -10.3814   15.0617 P   0  0  2  0  0  5  0  0  0  0  0  0
  -16.2232  -10.0471   15.8186 O   0  0  0  0  0  0  0  0  0  0  0  0
  -18.6455  -11.0681   16.0932 O   0  0  0  0  0  0  0  0  0  0  0  0
  -18.1339   -8.9342   14.4536 O   0  0  0  0  0  0  0  0  0  0  0  0
  -19.4016   -9.1205   13.9043 C   0  0  2  0  0  0  0  0  0  0  0  0
  -20.3172   -8.1207   14.5387 C   0  0  1  0  0  0  0  0  0  0  0  0
  -21.3810   -8.7417   15.4144 C   0  0  2  0  0  0  0  0  0  0  0  0
  -22.0430   -9.9129   14.7358 C   0  0  1  0  0  0  0  0  0  0  0  0
  -21.0829  -10.7036   13.8861 C   0  0  1  0  0  0  0  0  0  0  0  0
  -21.4298  -10.4526   12.4462 C   0  0  0  0  0  0  0  0  0  0  0  0
  -19.6184   -7.2081   15.3583 O   0  0  0  0  0  0  0  0  0  0  0  0
  -22.3448   -7.7783   15.6714 O   0  0  0  0  0  0  0  0  0  0  0  0
  -22.6097  -10.6977   15.7388 O   0  0  0  0  0  0  0  0  0  0  0  0
  -19.7555  -10.4347   14.1944 O   0  0  0  0  0  0  0  0  0  0  0  0
  -20.6208  -11.2644   11.6292 O   0  0  0  0  0  0  0  0  0  0  0  0
  1  2  1  0
  2  3  1  0
  3  4  1  0
  4  5  1  0
  1  6  1  0
  5  6  2  0
  2  7  2  0
  4  8  2  0
  9  1  1  6
  9 10  1  0
 10 11  1  1
 10 12  1  0
 12 13  1  0
  9 14  1  0
 13 14  1  6
 12 15  1  1
 13 16  1  0
 16 17  1  6
 18 17  1  0
 18 19  2  0
 18 20  1  6
 18 21  1  0
 22 21  1  0
 22 23  2  0
 22 24  1  1
 22 25  1  0
 26 25  1  1
 26 27  1  0
 27 28  1  0
 28 29  1  0
 29 30  1  0
 30 31  1  0
 27 32  1  1
 28 33  1  6
 29 34  1  1
 26 35  1  0
 30 35  1  6
 31 36  1  1
M  END
$$$$
