7MEU_MGP_A_1000
     RDKit          3D

 33 35  0  0  0  0  0  0  0  0999 V2000
    9.3956    7.0333   95.3200 P   0  0  2  0  0  5  0  0  0  0  0  0
    7.9333    6.9584   96.1630 O   0  0  0  0  0  0  0  0  0  0  0  0
    9.6768    8.4638   94.9828 O   0  0  0  0  0  0  0  0  0  0  0  0
    9.3997    6.0182   93.9808 O   0  0  0  0  0  0  0  0  0  0  0  0
   10.5977    6.5010   96.3846 O   0  0  0  0  0  0  0  0  0  0  0  0
   10.9757    5.7069   93.4327 P   0  0  2  0  0  5  0  0  0  0  0  0
   10.9383    5.3150   91.7779 O   0  0  0  0  0  0  0  0  0  0  0  0
   11.4609    4.4771   94.1659 O   0  0  0  0  0  0  0  0  0  0  0  0
   12.0040    6.9941   93.7085 O   0  0  0  0  0  0  0  0  0  0  0  0
   13.4368    6.4736   94.4567 P   0  0  2  0  0  5  0  0  0  0  0  0
   14.4750    7.8018   94.7237 O   0  0  0  0  0  0  0  0  0  0  0  0
   14.1822    5.5202   93.5646 O   0  0  0  0  0  0  0  0  0  0  0  0
   13.0650    5.7696   95.9495 O   0  0  0  0  0  0  0  0  0  0  0  0
   11.2555    7.6182   96.8891 C   0  0  0  0  0  0  0  0  0  0  0  0
   10.5616    8.1739   98.1080 C   0  0  1  0  0  0  0  0  0  0  0  0
    9.1861    8.3001   97.9569 O   0  0  0  0  0  0  0  0  0  0  0  0
   10.8055    7.1807   99.2304 C   0  0  1  0  0  0  0  0  0  0  0  0
   11.5172    7.7972  100.2837 O   0  0  0  0  0  0  0  0  0  0  0  0
    9.3730    6.9751   99.7410 C   0  0  1  0  0  0  0  0  0  0  0  0
    9.3393    6.7884  101.0983 O   0  0  0  0  0  0  0  0  0  0  0  0
    8.7627    8.2811   99.2746 C   0  0  2  0  0  0  0  0  0  0  0  0
    7.3299    8.3251   99.4028 N   0  0  0  0  0  0  0  0  0  0  0  0
    6.3779    7.9916   98.5313 C   0  0  0  0  0  0  0  0  0  0  0  0
    5.1508    8.1830   99.0465 N   0  0  0  0  0  0  0  0  0  0  0  0
    3.8481    7.9580   98.4643 C   0  0  0  0  0  0  0  0  0  0  0  0
    5.3234    8.6568  100.2943 C   0  0  0  0  0  0  0  0  0  0  0  0
    4.4511    9.0364  101.3026 C   0  0  0  0  0  0  0  0  0  0  0  0
    3.2017    8.9695  101.1369 O   0  0  0  0  0  0  0  0  0  0  0  0
    4.8695    9.4910  102.4977 N   0  0  0  0  0  0  0  0  0  0  0  0
    6.1990    9.5677  102.6888 C   0  0  0  0  0  0  0  0  0  0  0  0
    6.7753   10.0336  103.9126 N   0  0  0  0  0  0  0  0  0  0  0  0
    7.0646    9.2050  101.7251 N   0  0  0  0  0  0  0  0  0  0  0  0
    6.6984    8.7438  100.5122 C   0  0  0  0  0  0  0  0  0  0  0  0
  1  2  1  1
  1  3  2  0
  1  4  1  0
  1  5  1  0
  6  4  1  0
  6  7  1  6
  6  8  2  0
  6  9  1  0
  9 10  1  0
 10 11  1  1
 10 12  2  0
 10 13  1  0
 14  5  1  6
 15 14  1  0
 15 16  1  6
 15 17  1  0
 17 18  1  1
 17 19  1  0
 19 20  1  1
 16 21  1  0
 19 21  1  0
 21 22  1  6
 22 23  1  0
 23 24  2  0
 25 24  1  1
 24 26  1  0
 26 27  1  0
 27 28  2  0
 27 29  1  0
 29 30  1  0
 30 31  1  0
 30 32  2  0
 22 33  1  0
 26 33  2  0
 32 33  1  0
M  CHG  1  24   1
M  END
$$$$
