7REE_4LY_A_1201
     RDKit          3D

 71 76  0  0  0  0  0  0  0  0999 V2000
    4.9650  -16.9594    6.3740 C   0  0  0  0  0  0  0  0  0  0  0  0
    8.0907  -16.7281    5.6936 C   0  0  0  0  0  0  0  0  0  0  0  0
    8.0018  -18.0762    5.4021 C   0  0  0  0  0  0  0  0  0  0  0  0
   10.6474  -12.2878    5.9600 C   0  0  0  0  0  0  0  0  0  0  0  0
   11.7658  -13.1089    6.1774 C   0  0  0  0  0  0  0  0  0  0  0  0
   14.6175  -10.7569    5.3281 C   0  0  0  0  0  0  0  0  0  0  0  0
   16.2814  -10.2743    3.5103 C   0  0  1  0  0  0  0  0  0  0  0  0
    2.5818  -18.4517    5.6587 C   0  0  2  0  0  0  0  0  0  0  0  0
    2.6814  -17.7804    7.0303 C   0  0  2  0  0  0  0  0  0  0  0  0
    2.3323  -18.6804    8.2325 C   0  0  2  0  0  0  0  0  0  0  0  0
    3.1298  -19.9129    8.2241 C   0  0  0  0  0  0  0  0  0  0  0  0
    5.9684  -16.2231    6.9696 C   0  0  0  0  0  0  0  0  0  0  0  0
    7.2769  -15.8432    6.4070 C   0  0  0  0  0  0  0  0  0  0  0  0
    9.2696  -16.2893    5.1691 C   0  0  0  0  0  0  0  0  0  0  0  0
    9.1556  -18.3713    4.6805 C   0  0  0  0  0  0  0  0  0  0  0  0
    8.9211  -14.1417    6.0346 C   0  0  0  0  0  0  0  0  0  0  0  0
   13.0577  -12.6150    5.9733 C   0  0  0  0  0  0  0  0  0  0  0  0
   13.2517  -11.2837    5.5568 C   0  0  0  0  0  0  0  0  0  0  0  0
   14.9245   -9.8839    4.1406 C   0  0  1  0  0  0  0  0  0  0  0  0
   17.8315  -12.0117    4.2780 C   0  0  1  0  0  0  0  0  0  0  0  0
   16.9653  -10.4304    5.9106 C   0  0  1  0  0  0  0  0  0  0  0  0
   15.6056  -10.9994    6.1935 C   0  0  0  0  0  0  0  0  0  0  0  0
   12.1304  -10.4588    5.3553 C   0  0  0  0  0  0  0  0  0  0  0  0
   10.8415  -10.9569    5.5679 C   0  0  0  0  0  0  0  0  0  0  0  0
    5.4586  -15.8483    8.1980 C   0  0  0  0  0  0  0  0  0  0  0  0
    1.5150  -16.9218    6.5357 C   0  0  2  0  0  0  0  0  0  0  0  0
    2.1886  -17.4258    2.4323 C   0  0  1  0  0  0  0  0  0  0  0  0
    2.7204  -16.5215    1.3276 C   0  0  1  0  0  0  0  0  0  0  0  0
   14.1163  -13.4444    6.1598 F   0  0  0  0  0  0  0  0  0  0  0  0
   12.2820   -9.1627    4.9797 F   0  0  0  0  0  0  0  0  0  0  0  0
    1.4670  -17.5953    5.2308 N   0  0  0  0  0  0  0  0  0  0  0  0
    3.7597  -20.8848    8.2136 N   0  0  0  0  0  0  0  0  0  0  0  0
    3.9198  -17.0105    7.2241 N   0  0  0  0  0  0  0  0  0  0  0  0
    9.9297  -17.2714    4.5394 N   0  0  0  0  0  0  0  0  0  0  0  0
    9.6962  -15.0132    5.3203 N   0  0  0  0  0  0  0  0  0  0  0  0
    9.3129  -12.7698    6.1861 N   0  0  0  0  0  0  0  0  0  0  0  0
   17.3450  -10.6383    4.4949 N   0  0  0  0  0  0  0  0  0  0  0  0
    7.7276  -14.5622    6.5612 N   0  0  0  0  0  0  0  0  0  0  0  0
    4.2205  -16.3604    8.3396 N   0  0  0  0  0  0  0  0  0  0  0  0
    0.8984  -15.4707    3.7445 O   0  0  0  0  0  0  0  0  0  0  0  0
    3.2570  -15.8250    4.3034 O   0  0  0  0  0  0  0  0  0  0  0  0
    1.9647  -16.5109    3.9505 S   0  0  2  0  0  6  0  0  0  0  0  0
    4.9802  -17.4046    5.3890 H   0  0  0  0  0  0  0  0  0  0  0  0
    7.2299  -18.7744    5.6938 H   0  0  0  0  0  0  0  0  0  0  0  0
   11.6419  -14.1274    6.5229 H   0  0  0  0  0  0  0  0  0  0  0  0
   16.0910  -11.1027    2.7875 H   0  0  0  0  0  0  0  0  0  0  0  0
   16.6441   -9.4152    2.9050 H   0  0  0  0  0  0  0  0  0  0  0  0
    2.2496  -19.5119    5.7142 H   0  0  0  0  0  0  0  0  0  0  0  0
    3.4984  -18.3513    5.0359 H   0  0  0  0  0  0  0  0  0  0  0  0
    1.2570  -18.9605    8.2158 H   0  0  0  0  0  0  0  0  0  0  0  0
    2.5334  -18.1300    9.1763 H   0  0  0  0  0  0  0  0  0  0  0  0
    9.4204  -19.3475    4.2960 H   0  0  0  0  0  0  0  0  0  0  0  0
   14.1255   -9.9728    3.3719 H   0  0  0  0  0  0  0  0  0  0  0  0
   14.9624   -8.8238    4.4763 H   0  0  0  0  0  0  0  0  0  0  0  0
   18.2570  -12.1072    3.2561 H   0  0  0  0  0  0  0  0  0  0  0  0
   18.6466  -12.2521    4.9946 H   0  0  0  0  0  0  0  0  0  0  0  0
   17.0083  -12.7503    4.3988 H   0  0  0  0  0  0  0  0  0  0  0  0
   16.9462   -9.3383    6.1182 H   0  0  0  0  0  0  0  0  0  0  0  0
   17.7154  -10.8746    6.6018 H   0  0  0  0  0  0  0  0  0  0  0  0
   15.4474  -11.6115    7.0743 H   0  0  0  0  0  0  0  0  0  0  0  0
    9.9883  -10.3067    5.4173 H   0  0  0  0  0  0  0  0  0  0  0  0
    5.9617  -15.2547    8.9494 H   0  0  0  0  0  0  0  0  0  0  0  0
    1.7377  -15.8316    6.4795 H   0  0  0  0  0  0  0  0  0  0  0  0
    0.5699  -17.1035    7.0936 H   0  0  0  0  0  0  0  0  0  0  0  0
    1.2162  -17.8625    2.1183 H   0  0  0  0  0  0  0  0  0  0  0  0
    2.9079  -18.2534    2.6117 H   0  0  0  0  0  0  0  0  0  0  0  0
    3.6682  -16.9310    0.9186 H   0  0  0  0  0  0  0  0  0  0  0  0
    1.9757  -16.4615    0.5061 H   0  0  0  0  0  0  0  0  0  0  0  0
    2.8982  -15.4972    1.7191 H   0  0  0  0  0  0  0  0  0  0  0  0
   10.8538  -17.2076    4.0581 H   0  0  0  0  0  0  0  0  0  0  0  0
    8.5586  -12.0673    6.3620 H   0  0  0  0  0  0  0  0  0  0  0  0
  2  3  1  0
  4  5  2  0
  8  9  1  0
  9 10  1  0
 10 11  1  0
  1 12  2  0
 12 13  1  0
  2 13  2  0
  2 14  1  0
  3 15  2  0
  5 17  1  0
  6 18  1  0
 17 18  2  0
  6 19  1  0
  7 19  1  0
 21 22  1  0
  6 22  2  0
 18 23  1  0
 23 24  2  0
  4 24  1  0
 12 25  1  0
  9 26  1  0
 27 28  1  0
 17 29  1  0
 23 30  1  0
  8 31  1  0
 26 31  1  0
 11 32  3  0
  9 33  1  1
  1 33  1  0
 15 34  1  0
 14 34  1  0
 16 35  1  0
 14 35  2  0
 16 36  1  0
  4 36  1  0
 21 37  1  0
 20 37  1  0
  7 37  1  0
 13 38  1  0
 16 38  2  0
 25 39  2  0
 33 39  1  0
 41 42  2  0
 40 42  2  0
 27 42  1  0
 42 31  1  1
  1 43  1  0
  3 44  1  0
  5 45  1  0
  7 46  1  6
  7 47  1  0
  8 48  1  1
  8 49  1  0
 10 50  1  6
 10 51  1  0
 15 52  1  0
 19 53  1  6
 19 54  1  0
 20 55  1  6
 20 56  1  0
 20 57  1  0
 21 58  1  1
 21 59  1  0
 22 60  1  0
 24 61  1  0
 25 62  1  0
 26 63  1  6
 26 64  1  0
 27 65  1  6
 27 66  1  0
 28 67  1  6
 28 68  1  0
 28 69  1  0
 34 70  1  0
 36 71  1  0
M  END
