7CUO_PHB_B_306
     RDKit          3D

 16 16  0  0  0  0  0  0  0  0999 V2000
   30.9730   22.5508   61.7979 C   0  0  0  0  0  0  0  0  0  0  0  0
   31.2908   22.1185   60.6775 O   0  0  0  0  0  0  0  0  0  0  0  0
   31.1237   23.7444   62.1586 O   0  0  0  0  0  0  0  0  0  0  0  0
   30.3293   21.5795   62.7493 C   0  0  0  0  0  0  0  0  0  0  0  0
   29.1421   20.9444   62.4087 C   0  0  0  0  0  0  0  0  0  0  0  0
   28.5265   20.0685   63.2847 C   0  0  0  0  0  0  0  0  0  0  0  0
   29.0934   19.8192   64.5254 C   0  0  0  0  0  0  0  0  0  0  0  0
   30.2857   20.4400   64.8686 C   0  0  0  0  0  0  0  0  0  0  0  0
   30.8909   21.3173   63.9888 C   0  0  0  0  0  0  0  0  0  0  0  0
   28.4792   18.9646   65.3968 O   0  0  0  0  0  0  0  0  0  0  0  0
   30.8639   24.0102   63.0187 H   0  0  0  0  0  0  0  0  0  0  0  0
   28.7129   21.1288   61.4885 H   0  0  0  0  0  0  0  0  0  0  0  0
   27.6466   19.6013   63.0152 H   0  0  0  0  0  0  0  0  0  0  0  0
   30.7220   20.2462   65.7836 H   0  0  0  0  0  0  0  0  0  0  0  0
   31.7718   21.7828   64.2581 H   0  0  0  0  0  0  0  0  0  0  0  0
   27.6741   18.5496   65.1569 H   0  0  0  0  0  0  0  0  0  0  0  0
  1  2  2  0
  1  3  1  0
  1  4  1  0
  4  5  4  0
  5  6  4  0
  6  7  4  0
  7  8  4  0
  4  9  4  0
  8  9  4  0
  7 10  1  0
  3 11  1  0
  5 12  1  0
  6 13  1  0
  8 14  1  0
  9 15  1  0
 10 16  1  0
M  END
