8AEU_M0L_A_302
     RDKit          3D

 41 45  0  0  0  0  0  0  0  0999 V2000
   28.5466    9.9895   19.6872 O   0  0  0  0  0  0  0  0  0  0  0  0
   29.9541    8.6929   18.5062 N   0  0  0  0  0  0  0  0  0  0  0  0
   33.6161   11.8365   15.0458 O   0  0  0  0  0  0  0  0  0  0  0  0
   32.2799   11.3294   21.3216 N   0  0  0  0  0  0  0  0  0  0  0  0
   30.6677    9.9180   20.6454 N   0  0  0  0  0  0  0  0  0  0  0  0
   30.0955   13.7155   24.4969 C   0  0  0  0  0  0  0  0  0  0  0  0
   29.0763   14.1335   23.6403 C   0  0  0  0  0  0  0  0  0  0  0  0
   29.9312    7.7046   23.2921 C   0  0  0  0  0  0  0  0  0  0  0  0
   28.9981    7.2393   24.1974 C   0  0  0  0  0  0  0  0  0  0  0  0
   29.0867    9.8870   23.5458 C   0  0  0  0  0  0  0  0  0  0  0  0
   30.7360   13.0099   18.7806 O   0  0  0  0  0  0  0  0  0  0  0  0
   28.1658    9.4245   24.4367 C   0  0  0  0  0  0  0  0  0  0  0  0
   28.9509   13.4520   22.4691 C   0  0  0  0  0  0  0  0  0  0  0  0
   29.7820   12.4004   22.1300 C   0  0  0  0  0  0  0  0  0  0  0  0
   30.0281    9.0296   22.9212 C   0  0  0  0  0  0  0  0  0  0  0  0
   28.0917    8.1204   24.7843 C   0  0  0  0  0  0  0  0  0  0  0  0
   29.6233   15.0974   19.2972 C   0  0  0  0  0  0  0  0  0  0  0  0
   33.6435   10.5622   17.1165 C   0  0  0  0  0  0  0  0  0  0  0  0
   30.9431    9.6189   21.9799 C   0  0  2  0  0  0  0  0  0  0  0  0
   30.9372   12.6501   24.1491 C   0  0  0  0  0  0  0  0  0  0  0  0
   33.1929   10.3326   18.3894 C   0  0  0  0  0  0  0  0  0  0  0  0
   27.8702    7.5998   18.2947 C   0  0  0  0  0  0  0  0  0  0  0  0
   28.8939    8.1614   17.7218 C   0  0  0  0  0  0  0  0  0  0  0  0
   28.0071   15.4420   24.0216 Cl  0  0  0  0  0  0  0  0  0  0  0  0
   29.7806    9.5211   19.6293 C   0  0  0  0  0  0  0  0  0  0  0  0
   28.8710   13.7097   17.4371 C   0  0  0  0  0  0  0  0  0  0  0  0
   26.8806    7.5867   25.9396 Cl  0  0  0  0  0  0  0  0  0  0  0  0
   30.8158   11.9606   22.9788 C   0  0  0  0  0  0  0  0  0  0  0  0
   31.6420   10.8437   22.5149 C   0  0  2  0  0  0  0  0  0  0  0  0
   31.7676   10.8415   20.2787 C   0  0  0  0  0  0  0  0  0  0  0  0
   33.1572   11.5969   16.3571 C   0  0  0  0  0  0  0  0  0  0  0  0
   32.1934   12.4073   16.9207 C   0  0  0  0  0  0  0  0  0  0  0  0
   31.7039   12.2177   18.1959 C   0  0  0  0  0  0  0  0  0  0  0  0
   32.2148   11.1674   18.9281 C   0  0  0  0  0  0  0  0  0  0  0  0
   30.1097   14.1308   18.2560 C   0  0  2  0  0  0  0  0  0  0  0  0
   33.9002   10.6952   14.2360 C   0  0  0  0  0  0  0  0  0  0  0  0
   31.3155    8.3696   18.0521 C   0  0  0  0  0  0  0  0  0  0  0  0
   31.5094    8.5709   16.6082 C   0  0  0  0  0  0  0  0  0  0  0  0
   30.3080    8.9358   15.9068 N   0  0  0  0  0  0  0  0  0  0  0  0
   29.0769    8.2935   16.2635 C   0  0  0  0  0  0  0  0  0  0  0  0
   28.2303    7.8774   15.4616 O   0  0  0  0  0  0  0  0  0  0  0  0
  6  7  2  0
  8  9  2  0
 10 12  1  0
  7 13  1  0
 13 14  2  0
 10 15  2  0
  8 15  1  0
 12 16  2  0
  9 16  1  0
  5 19  1  0
 19 15  1  1
  6 20  1  0
 18 21  2  0
  2 23  1  0
 22 23  2  0
  7 24  1  0
  2 25  1  0
  1 25  2  0
  5 25  1  0
 16 27  1  0
 14 28  1  0
 20 28  2  0
  4 29  1  0
 19 29  1  0
 29 28  1  6
  5 30  1  0
  4 30  2  0
  3 31  1  0
 18 31  1  0
 31 32  2  0
 32 33  1  0
 11 33  1  0
 33 34  2  0
 21 34  1  0
 30 34  1  0
 35 26  1  1
 11 35  1  0
 17 35  1  0
  3 36  1  0
  2 37  1  0
 37 38  1  0
 38 39  1  0
 39 40  1  0
 23 40  1  0
 40 41  2  0
M  END
$$$$
