7S45_ACO_A_202
     RDKit          3D

 89 91  0  0  0  0  0  0  0  0999 V2000
  -13.4478  -35.7195   24.4551 N   0  0  0  0  0  0  0  0  0  0  0  0
  -14.5884  -36.4379   24.1965 C   0  0  0  0  0  0  0  0  0  0  0  0
  -14.5387  -37.7991   24.0783 N   0  0  0  0  0  0  0  0  0  0  0  0
  -13.3339  -38.4052   24.2093 C   0  0  0  0  0  0  0  0  0  0  0  0
  -12.1960  -37.7180   24.4581 C   0  0  0  0  0  0  0  0  0  0  0  0
  -12.2357  -36.3349   24.5945 C   0  0  0  0  0  0  0  0  0  0  0  0
  -11.0644  -35.5742   24.8897 N   0  0  0  0  0  0  0  0  0  0  0  0
  -11.1552  -38.5594   24.5856 N   0  0  0  0  0  0  0  0  0  0  0  0
  -11.7301  -39.7807   24.4099 C   0  0  0  0  0  0  0  0  0  0  0  0
  -13.0684  -39.7174   24.1729 N   0  0  0  0  0  0  0  0  0  0  0  0
  -14.0148  -40.8242   24.0076 C   0  0  1  0  0  0  0  0  0  0  0  0
  -14.6019  -41.2566   25.3428 C   0  0  2  0  0  0  0  0  0  0  0  0
  -13.8064  -42.2292   25.9694 O   0  0  0  0  0  0  0  0  0  0  0  0
  -15.9470  -41.8032   24.9414 C   0  0  2  0  0  0  0  0  0  0  0  0
  -15.8233  -43.1752   24.5999 O   0  0  0  0  0  0  0  0  0  0  0  0
  -14.5162  -43.8784   25.4429 P   0  0  2  0  0  5  0  0  0  0  0  0
  -13.2649  -43.0481   25.2516 O   0  0  0  0  0  0  0  0  0  0  0  0
  -14.2461  -45.4491   24.8715 O   0  0  0  0  0  0  0  0  0  0  0  0
  -14.8925  -43.9439   27.0914 O   0  0  0  0  0  0  0  0  0  0  0  0
  -16.2625  -41.0024   23.6680 C   0  0  2  0  0  0  0  0  0  0  0  0
  -15.0703  -40.4368   23.1589 O   0  0  0  0  0  0  0  0  0  0  0  0
  -17.2910  -39.8861   23.9093 C   0  0  1  0  0  0  0  0  0  0  0  0
  -16.6743  -38.8213   24.5910 O   0  0  0  0  0  0  0  0  0  0  0  0
  -17.8248  -38.0296   25.5709 P   0  0  2  0  0  5  0  0  0  0  0  0
  -17.0903  -37.0643   26.4744 O   0  0  0  0  0  0  0  0  0  0  0  0
  -18.7016  -39.1135   26.5400 O   0  0  0  0  0  0  0  0  0  0  0  0
  -18.8680  -37.1349   24.5652 O   0  0  0  0  0  0  0  0  0  0  0  0
  -18.1482  -36.9691   23.0256 P   0  0  2  0  0  5  0  0  0  0  0  0
  -19.1607  -36.3226   22.1056 O   0  0  0  0  0  0  0  0  0  0  0  0
  -17.6571  -38.4491   22.3563 O   0  0  0  0  0  0  0  0  0  0  0  0
  -16.7963  -35.9366   23.1791 O   0  0  0  0  0  0  0  0  0  0  0  0
  -14.8615  -36.3964   24.6210 C   0  0  2  0  0  0  0  0  0  0  0  0
  -15.6282  -36.7211   23.3045 C   0  0  1  0  0  0  0  0  0  0  0  0
  -13.6234  -35.5308   24.2907 C   0  0  2  0  0  0  0  0  0  0  0  0
  -14.3526  -37.7319   25.2156 C   0  0  1  0  0  0  0  0  0  0  0  0
  -15.7337  -35.6575   25.7028 C   0  0  1  0  0  0  0  0  0  0  0  0
  -15.5984  -36.2014   26.9932 O   0  0  0  0  0  0  0  0  0  0  0  0
  -15.5802  -34.1466   25.7165 C   0  0  0  0  0  0  0  0  0  0  0  0
  -14.9024  -33.5994   24.8037 O   0  0  0  0  0  0  0  0  0  0  0  0
  -16.1731  -33.3327   26.7398 N   0  0  0  0  0  0  0  0  0  0  0  0
  -17.6046  -33.0270   26.7604 C   0  0  1  0  0  0  0  0  0  0  0  0
  -18.1311  -32.7656   25.3427 C   0  0  2  0  0  0  0  0  0  0  0  0
  -19.1214  -33.8095   24.9037 C   0  0  0  0  0  0  0  0  0  0  0  0
  -20.0231  -33.5100   24.0758 O   0  0  0  0  0  0  0  0  0  0  0  0
  -19.0162  -35.1551   25.3828 N   0  0  0  0  0  0  0  0  0  0  0  0
  -19.9490  -36.1839   24.9260 C   0  0  2  0  0  0  0  0  0  0  0  0
  -20.3389  -35.9657   23.4628 C   0  0  2  0  0  0  0  0  0  0  0  0
  -21.6205  -34.6717   23.3163 S   0  0  0  0  0  0  0  0  0  0  0  0
  -21.1873  -34.1927   21.6384 C   0  0  0  0  0  0  0  0  0  0  0  0
  -20.0989  -34.5056   21.1828 O   0  0  0  0  0  0  0  0  0  0  0  0
  -22.1606  -33.4376   20.7904 C   0  0  2  0  0  0  0  0  0  0  0  0
  -15.5357  -35.9275   24.0977 H   0  0  0  0  0  0  0  0  0  0  0  0
  -10.2755  -35.5415   24.2057 H   0  0  0  0  0  0  0  0  0  0  0  0
  -10.9860  -35.0263   25.7761 H   0  0  0  0  0  0  0  0  0  0  0  0
  -11.1704  -40.7035   24.4706 H   0  0  0  0  0  0  0  0  0  0  0  0
  -13.4987  -41.6914   23.5373 H   0  0  0  0  0  0  0  0  0  0  0  0
  -14.7550  -40.3883   26.0234 H   0  0  0  0  0  0  0  0  0  0  0  0
  -13.7058  -41.9407   26.9142 H   0  0  0  0  0  0  0  0  0  0  0  0
  -16.6779  -41.5862   25.7586 H   0  0  0  0  0  0  0  0  0  0  0  0
  -13.7051  -45.3278   24.0505 H   0  0  0  0  0  0  0  0  0  0  0  0
  -15.8732  -43.8115   27.1319 H   0  0  0  0  0  0  0  0  0  0  0  0
  -16.6869  -41.6844   22.8988 H   0  0  0  0  0  0  0  0  0  0  0  0
  -17.6548  -39.5396   22.9170 H   0  0  0  0  0  0  0  0  0  0  0  0
  -18.1530  -40.2994   24.4824 H   0  0  0  0  0  0  0  0  0  0  0  0
  -19.3681  -38.5519   27.0097 H   0  0  0  0  0  0  0  0  0  0  0  0
  -17.3828  -38.2403   21.4277 H   0  0  0  0  0  0  0  0  0  0  0  0
  -15.8892  -37.8006   23.2832 H   0  0  0  0  0  0  0  0  0  0  0  0
  -14.9332  -36.5241   22.4529 H   0  0  0  0  0  0  0  0  0  0  0  0
  -13.9217  -34.4788   24.0964 H   0  0  0  0  0  0  0  0  0  0  0  0
  -13.0974  -35.9080   23.3889 H   0  0  0  0  0  0  0  0  0  0  0  0
  -12.9022  -35.5375   25.1367 H   0  0  0  0  0  0  0  0  0  0  0  0
  -14.9224  -38.0029   26.1314 H   0  0  0  0  0  0  0  0  0  0  0  0
  -14.4694  -38.5622   24.4868 H   0  0  0  0  0  0  0  0  0  0  0  0
  -13.2797  -37.6570   25.4934 H   0  0  0  0  0  0  0  0  0  0  0  0
  -16.7959  -35.8453   25.4253 H   0  0  0  0  0  0  0  0  0  0  0  0
  -15.4244  -35.4678   27.6298 H   0  0  0  0  0  0  0  0  0  0  0  0
  -15.5832  -32.9415   27.5047 H   0  0  0  0  0  0  0  0  0  0  0  0
  -18.1617  -33.8694   27.2242 H   0  0  0  0  0  0  0  0  0  0  0  0
  -17.7855  -32.1296   27.3892 H   0  0  0  0  0  0  0  0  0  0  0  0
  -17.2673  -32.7626   24.6418 H   0  0  0  0  0  0  0  0  0  0  0  0
  -18.6101  -31.7652   25.2888 H   0  0  0  0  0  0  0  0  0  0  0  0
  -18.2617  -35.3927   26.0686 H   0  0  0  0  0  0  0  0  0  0  0  0
  -20.8600  -36.1570   25.5635 H   0  0  0  0  0  0  0  0  0  0  0  0
  -19.4675  -37.1785   25.0332 H   0  0  0  0  0  0  0  0  0  0  0  0
  -20.6983  -36.9170   23.0130 H   0  0  0  0  0  0  0  0  0  0  0  0
  -19.4475  -35.6270   22.8931 H   0  0  0  0  0  0  0  0  0  0  0  0
  -23.0203  -33.0906   21.4012 H   0  0  0  0  0  0  0  0  0  0  0  0
  -22.5393  -34.0956   19.9806 H   0  0  0  0  0  0  0  0  0  0  0  0
  -21.6585  -32.5548   20.3420 H   0  0  0  0  0  0  0  0  0  0  0  0
  1  2  2  0
  2  3  1  0
  3  4  2  0
  4  5  1  0
  1  6  1  0
  5  6  2  0
  6  7  1  0
  5  8  1  0
  8  9  2  0
  4 10  1  0
  9 10  1  0
 11 10  1  0
 11 12  1  0
 12 13  1  0
 12 14  1  0
 14 15  1  0
 16 15  1  6
 16 17  2  0
 16 18  1  0
 16 19  1  0
 14 20  1  0
 11 21  1  0
 20 21  1  0
 20 22  1  0
 22 23  1  0
 24 23  1  6
 24 25  2  0
 24 26  1  0
 24 27  1  0
 28 27  1  1
 28 29  2  0
 28 30  1  0
 28 31  1  0
 31 33  1  0
 32 33  1  0
 32 34  1  0
 32 35  1  0
 32 36  1  1
 36 37  1  0
 36 38  1  0
 38 39  2  0
 38 40  1  0
 40 41  1  0
 41 42  1  0
 42 43  1  0
 43 44  2  0
 43 45  1  0
 45 46  1  0
 46 47  1  0
 47 48  1  0
 48 49  1  0
 49 50  2  0
 49 51  1  0
  2 52  1  0
  7 53  1  0
  7 54  1  0
  9 55  1  0
 11 56  1  6
 12 57  1  1
 13 58  1  0
 14 59  1  1
 18 60  1  0
 19 61  1  0
 20 62  1  6
 22 63  1  6
 22 64  1  0
 26 65  1  0
 30 66  1  0
 33 67  1  1
 33 68  1  0
 34 69  1  6
 34 70  1  0
 34 71  1  0
 35 72  1  1
 35 73  1  0
 35 74  1  0
 36 75  1  6
 37 76  1  0
 40 77  1  0
 41 78  1  1
 41 79  1  0
 42 80  1  6
 42 81  1  0
 45 82  1  0
 46 83  1  1
 46 84  1  0
 47 85  1  6
 47 86  1  0
 51 87  1  1
 51 88  1  0
 51 89  1  0
M  END
