1M2Z_DEX_A_301
     RDKit          3D

 57 60  0  0  0  0  0  0  0  0999 V2000
   24.3780   14.3987    1.5554 C   0  0  0  0  0  0  0  0  0  0  0  0
   24.5385   13.5208    2.5481 C   0  0  0  0  0  0  0  0  0  0  0  0
   25.6206   13.6989    3.5129 C   0  0  0  0  0  0  0  0  0  0  0  0
   26.6473   14.7071    3.2462 C   0  0  0  0  0  0  0  0  0  0  0  0
   26.5055   15.5777    2.2302 C   0  0  0  0  0  0  0  0  0  0  0  0
   27.6404   16.5516    1.9776 C   0  0  2  0  0  0  0  0  0  0  0  0
   27.7817   16.9082    0.4959 C   0  0  1  0  0  0  0  0  0  0  0  0
   26.4206   17.3521   -0.0455 C   0  0  2  0  0  0  0  0  0  0  0  0
   25.3892   16.1693    0.0039 C   0  0  1  0  0  0  0  0  0  0  0  0
   25.1398   15.7332    1.5060 C   0  0  1  0  0  0  0  0  0  0  0  0
   24.1189   16.4714   -0.9272 C   0  0  2  0  0  0  0  0  0  0  0  0
   23.9085   17.9540   -1.3569 C   0  0  1  0  0  0  0  0  0  0  0  0
   25.2007   18.7440   -1.7724 C   0  0  1  0  0  0  0  0  0  0  0  0
   26.4511   17.8927   -1.4821 C   0  0  1  0  0  0  0  0  0  0  0  0
   27.6141   18.6905   -2.0494 C   0  0  2  0  0  0  0  0  0  0  0  0
   27.0000   19.3657   -3.3088 C   0  0  2  0  0  0  0  0  0  0  0  0
   25.4550   19.0364   -3.2952 C   0  0  2  0  0  0  0  0  0  0  0  0
   25.1789   20.0964   -0.9680 C   0  0  2  0  0  0  0  0  0  0  0  0
   24.3119   16.7805    2.2890 C   0  0  2  0  0  0  0  0  0  0  0  0
   24.6241   20.1917   -3.8738 C   0  0  0  0  0  0  0  0  0  0  0  0
   23.3485   19.9357   -4.6428 C   0  0  2  0  0  0  0  0  0  0  0  0
   27.7117   18.9332   -4.5998 C   0  0  1  0  0  0  0  0  0  0  0  0
   26.0092   15.0715   -0.5898 F   0  0  0  0  0  0  0  0  0  0  0  0
   25.7079   12.9489    4.5203 O   0  0  0  0  0  0  0  0  0  0  0  0
   22.9211   15.9967   -0.3709 O   0  0  0  0  0  0  0  0  0  0  0  0
   25.2494   17.8676   -4.0689 O   0  0  0  0  0  0  0  0  0  0  0  0
   25.0058   21.3462   -3.7367 O   0  0  0  0  0  0  0  0  0  0  0  0
   22.3163   20.7850   -4.2161 O   0  0  0  0  0  0  0  0  0  0  0  0
   23.6200   14.1589    0.8283 H   0  0  0  0  0  0  0  0  0  0  0  0
   23.9115   12.6390    2.5996 H   0  0  0  0  0  0  0  0  0  0  0  0
   27.5508   14.6954    3.8451 H   0  0  0  0  0  0  0  0  0  0  0  0
   28.6113   16.1289    2.3192 H   0  0  0  0  0  0  0  0  0  0  0  0
   27.4538   17.4753    2.5674 H   0  0  0  0  0  0  0  0  0  0  0  0
   28.5156   17.7377    0.4077 H   0  0  0  0  0  0  0  0  0  0  0  0
   28.1804   16.0419   -0.0752 H   0  0  0  0  0  0  0  0  0  0  0  0
   26.0904   18.1601    0.6254 H   0  0  0  0  0  0  0  0  0  0  0  0
   24.2892   15.9190   -1.8826 H   0  0  0  0  0  0  0  0  0  0  0  0
   23.1449   18.0095   -2.1592 H   0  0  0  0  0  0  0  0  0  0  0  0
   23.4182   18.4465   -0.4874 H   0  0  0  0  0  0  0  0  0  0  0  0
   26.4417   16.9836   -2.1319 H   0  0  0  0  0  0  0  0  0  0  0  0
   28.4699   18.0216   -2.2928 H   0  0  0  0  0  0  0  0  0  0  0  0
   27.9634   19.4518   -1.3188 H   0  0  0  0  0  0  0  0  0  0  0  0
   27.1684   20.4604   -3.2083 H   0  0  0  0  0  0  0  0  0  0  0  0
   24.3297   20.7244   -1.3107 H   0  0  0  0  0  0  0  0  0  0  0  0
   26.1034   20.6949   -1.0833 H   0  0  0  0  0  0  0  0  0  0  0  0
   25.0088   19.9576    0.1167 H   0  0  0  0  0  0  0  0  0  0  0  0
   24.9149   17.6708    2.5567 H   0  0  0  0  0  0  0  0  0  0  0  0
   23.9445   16.3435    3.2428 H   0  0  0  0  0  0  0  0  0  0  0  0
   23.4260   17.1227    1.7201 H   0  0  0  0  0  0  0  0  0  0  0  0
   23.0395   18.8733   -4.5240 H   0  0  0  0  0  0  0  0  0  0  0  0
   23.5332   20.1257   -5.7207 H   0  0  0  0  0  0  0  0  0  0  0  0
   26.9811   18.7466   -5.4155 H   0  0  0  0  0  0  0  0  0  0  0  0
   28.4246   19.7219   -4.9215 H   0  0  0  0  0  0  0  0  0  0  0  0
   28.2822   17.9973   -4.4193 H   0  0  0  0  0  0  0  0  0  0  0  0
   22.3567   15.6656   -1.1182 H   0  0  0  0  0  0  0  0  0  0  0  0
   24.3147   17.8444   -4.3914 H   0  0  0  0  0  0  0  0  0  0  0  0
   21.5575   20.2004   -3.9542 H   0  0  0  0  0  0  0  0  0  0  0  0
  1  2  2  0
  2  3  1  0
  3  4  1  0
  4  5  2  0
  5  6  1  0
  6  7  1  0
  8  7  1  0
  8  9  1  0
 10  1  1  6
  5 10  1  0
  9 10  1  0
  9 11  1  0
 11 12  1  0
 12 13  1  0
  8 14  1  0
 13 14  1  0
 14 15  1  0
 15 16  1  0
 13 17  1  6
 16 17  1  0
 13 18  1  0
 10 19  1  0
 17 20  1  0
 20 21  1  0
 16 22  1  0
  9 23  1  6
  3 24  2  0
 11 25  1  0
 17 26  1  6
 20 27  2  0
 21 28  1  0
  1 29  1  0
  2 30  1  0
  4 31  1  0
  6 32  1  1
  6 33  1  0
  7 34  1  1
  7 35  1  0
  8 36  1  1
 11 37  1  6
 12 38  1  6
 12 39  1  0
 14 40  1  6
 15 41  1  6
 15 42  1  0
 16 43  1  1
 18 44  1  6
 18 45  1  0
 18 46  1  0
 19 47  1  1
 19 48  1  0
 19 49  1  0
 21 50  1  6
 21 51  1  0
 22 52  1  6
 22 53  1  0
 22 54  1  0
 25 55  1  0
 26 56  1  0
 28 57  1  0
M  END
