1MMV_3AR_B_2785
     RDKit          3D

 36 35  0  0  0  0  0  0  0  0999 V2000
   11.8315   -1.9198   38.5003 N   0  0  0  0  0  0  0  0  0  0  0  0
   10.9296   -0.8271   38.1275 C   0  0  2  0  0  0  0  0  0  0  0  0
   10.7879   -0.7366   36.6318 C   0  0  0  0  0  0  0  0  0  0  0  0
    9.6581   -0.5495   36.1037 O   0  0  0  0  0  0  0  0  0  0  0  0
   11.4088    0.5142   38.7186 C   0  0  1  0  0  0  0  0  0  0  0  0
   12.5527    1.1652   37.9170 C   0  0  1  0  0  0  0  0  0  0  0  0
   13.1300    2.3947   38.6307 C   0  0  2  0  0  0  0  0  0  0  0  0
   12.0929    3.4047   38.8468 N   0  0  0  0  0  0  0  0  0  0  0  0
   11.6359    3.7752   40.1563 C   0  0  0  0  0  0  0  0  0  0  0  0
   12.4702    3.4714   41.2873 N   0  0  0  0  0  0  0  0  0  0  0  0
   10.4790    4.3513   40.3098 N   0  0  0  0  0  4  0  0  0  0  0  0
   13.6028    2.5449   41.2201 C   0  0  2  0  0  0  0  0  0  0  0  0
   13.7684    1.7623   42.5292 C   0  0  2  0  0  0  0  0  0  0  0  0
   12.9031    0.5020   42.5558 C   0  0  2  0  0  0  0  0  0  0  0  0
   11.9083   -0.9093   35.8250 O   0  0  0  0  0  0  0  0  0  0  0  0
   12.6317   -1.9300   37.8266 H   0  0  0  0  0  0  0  0  0  0  0  0
   12.2452   -1.6993   39.4358 H   0  0  0  0  0  0  0  0  0  0  0  0
    9.9207   -1.0403   38.5489 H   0  0  0  0  0  0  0  0  0  0  0  0
   10.5407    1.2059   38.7642 H   0  0  0  0  0  0  0  0  0  0  0  0
   11.7490    0.3410   39.7632 H   0  0  0  0  0  0  0  0  0  0  0  0
   13.3734    0.4286   37.7807 H   0  0  0  0  0  0  0  0  0  0  0  0
   12.1925    1.4667   36.9100 H   0  0  0  0  0  0  0  0  0  0  0  0
   13.9243    2.8365   37.9917 H   0  0  0  0  0  0  0  0  0  0  0  0
   13.6073    2.0868   39.5844 H   0  0  0  0  0  0  0  0  0  0  0  0
   11.4666    3.6179   38.0378 H   0  0  0  0  0  0  0  0  0  0  0  0
   12.1752    3.8493   42.2162 H   0  0  0  0  0  0  0  0  0  0  0  0
   10.1134    4.6142   41.2507 H   0  0  0  0  0  0  0  0  0  0  0  0
    9.8505    4.5263   39.4953 H   0  0  0  0  0  0  0  0  0  0  0  0
   14.5316    3.1235   41.0276 H   0  0  0  0  0  0  0  0  0  0  0  0
   13.4550    1.8276   40.3830 H   0  0  0  0  0  0  0  0  0  0  0  0
   13.5110    2.4115   43.3940 H   0  0  0  0  0  0  0  0  0  0  0  0
   14.8335    1.4622   42.6339 H   0  0  0  0  0  0  0  0  0  0  0  0
   11.9902    0.6471   41.9398 H   0  0  0  0  0  0  0  0  0  0  0  0
   12.6046    0.2501   43.5948 H   0  0  0  0  0  0  0  0  0  0  0  0
   13.4788   -0.3511   42.1393 H   0  0  0  0  0  0  0  0  0  0  0  0
   12.2049   -0.1827   35.1847 H   0  0  0  0  0  0  0  0  0  0  0  0
  2  1  1  0
  2  3  1  0
  3  4  2  0
  2  5  1  0
  5  6  1  0
  6  7  1  0
  7  8  1  0
  8  9  1  0
  9 10  1  0
  9 11  2  0
 10 12  1  0
 12 13  1  0
 13 14  1  0
  3 15  1  0
  1 16  1  0
  1 17  1  0
  2 18  1  1
  5 19  1  1
  5 20  1  0
  6 21  1  6
  6 22  1  0
  7 23  1  6
  7 24  1  0
  8 25  1  0
 10 26  1  0
 11 27  1  0
 11 28  1  0
 12 29  1  6
 12 30  1  0
 13 31  1  1
 13 32  1  0
 14 33  1  6
 14 34  1  0
 14 35  1  0
 15 36  1  0
M  CHG  1  11   1
M  END
