8FLV_ZB9_A_701
     RDKit          3D

 51 54  0  0  0  0  0  0  0  0999 V2000
   -4.5929    1.9454   -4.1225 N   0  0  0  0  0  0  0  0  0  0  0  0
   -6.0641    0.9653   -0.4942 N   0  0  0  0  0  4  0  0  0  0  0  0
   -5.6833    1.2662   -1.7438 C   0  0  0  0  0  0  0  0  0  0  0  0
   -3.8714    1.5216   -0.5130 C   0  0  0  0  0  0  0  0  0  0  0  0
   -4.9550    1.1207    0.2655 C   0  0  0  0  0  0  0  0  0  0  0  0
   -1.4119    1.2828   -2.7307 C   0  0  0  0  0  0  0  0  0  0  0  0
   -1.9414    3.5716   -3.7128 C   0  0  2  0  0  0  0  0  0  0  0  0
   -2.1438    4.2221   -6.2101 C   0  0  0  0  0  0  0  0  0  0  0  0
   -5.4433    4.7365   -4.3588 C   0  0  0  0  0  0  0  0  0  0  0  0
   -4.6756    2.9202   -1.6691 C   0  0  0  0  0  0  0  0  0  0  0  0
   -3.2300    2.1825    0.1447 C   0  0  0  0  0  0  0  0  0  0  0  0
   -4.0519    1.9898   -2.5231 C   0  0  0  0  0  0  0  0  0  0  0  0
   -5.9187    1.6091   -4.0425 C   0  0  0  0  0  0  0  0  0  0  0  0
   -3.6625    4.1689   -6.0220 C   0  0  0  0  0  0  0  0  0  0  0  0
   -3.0106    4.6858   -3.6162 C   0  0  0  0  0  0  0  0  0  0  0  0
   -6.2488    3.7990   -3.4993 C   0  0  0  0  0  0  0  0  0  0  0  0
   -4.2497    3.0118   -0.3343 C   0  0  0  0  0  0  0  0  0  0  0  0
   -2.6235    1.2563   -0.7082 C   0  0  0  0  0  0  0  0  0  0  0  0
   -3.0330    1.1606   -2.0412 C   0  0  0  0  0  0  0  0  0  0  0  0
   -3.7867    1.9418   -3.0196 C   0  0  0  0  0  0  0  0  0  0  0  0
   -4.3649    1.6037   -1.7982 C   0  0  0  0  0  0  0  0  0  0  0  0
   -1.4252    3.3611   -5.1633 C   0  0  0  0  0  0  0  0  0  0  0  0
   -6.4739    1.2618   -2.8439 N   0  0  0  0  0  0  0  0  0  0  0  0
   -2.3970    2.2867   -3.1359 N   0  0  0  0  0  0  0  0  0  0  0  0
   -4.0486    4.5044   -4.6437 N   0  0  0  0  0  0  0  0  0  0  0  0
   -5.7398    3.7765   -2.1270 N   0  0  0  0  0  0  0  0  0  0  0  0
   -6.0116    5.7590   -4.8301 O   0  0  0  0  0  0  0  0  0  0  0  0
   -2.2679    0.0003   -3.1115 Cl  0  0  0  0  0  0  0  0  0  0  0  0
   -2.7153    2.3023    1.8173 Cl  0  0  0  0  0  0  0  0  0  0  0  0
   -7.0149    0.6781   -0.1724 H   0  0  0  0  0  0  0  0  0  0  0  0
   -2.8686    1.7317   -0.1706 H   0  0  0  0  0  0  0  0  0  0  0  0
   -4.9295    0.9573    1.3348 H   0  0  0  0  0  0  0  0  0  0  0  0
   -1.5271    1.0632   -1.6484 H   0  0  0  0  0  0  0  0  0  0  0  0
   -1.5622    0.3479   -3.3103 H   0  0  0  0  0  0  0  0  0  0  0  0
   -0.3759    1.6411   -2.9107 H   0  0  0  0  0  0  0  0  0  0  0  0
   -1.0841    3.9306   -3.0993 H   0  0  0  0  0  0  0  0  0  0  0  0
   -1.8827    3.8646   -7.2295 H   0  0  0  0  0  0  0  0  0  0  0  0
   -1.7994    5.2760   -6.1231 H   0  0  0  0  0  0  0  0  0  0  0  0
   -4.3445    1.9042   -3.5601 H   0  0  0  0  0  0  0  0  0  0  0  0
   -6.5285    1.6153   -4.9352 H   0  0  0  0  0  0  0  0  0  0  0  0
   -4.1293    4.8930   -6.7251 H   0  0  0  0  0  0  0  0  0  0  0  0
   -4.0325    3.1515   -6.2718 H   0  0  0  0  0  0  0  0  0  0  0  0
   -2.5264    5.6749   -3.7690 H   0  0  0  0  0  0  0  0  0  0  0  0
   -3.4403    4.6930   -2.5937 H   0  0  0  0  0  0  0  0  0  0  0  0
   -6.1988    2.7783   -3.9337 H   0  0  0  0  0  0  0  0  0  0  0  0
   -7.3188    4.0982   -3.4915 H   0  0  0  0  0  0  0  0  0  0  0  0
   -4.7179    3.7222    0.3358 H   0  0  0  0  0  0  0  0  0  0  0  0
   -1.8351    0.6137   -0.3369 H   0  0  0  0  0  0  0  0  0  0  0  0
   -0.3390    3.5949   -5.2052 H   0  0  0  0  0  0  0  0  0  0  0  0
   -1.5232    2.2965   -5.4599 H   0  0  0  0  0  0  0  0  0  0  0  0
   -6.2276    4.3818   -1.4277 H   0  0  0  0  0  0  0  0  0  0  0  0
  2  3  4  0
  2  5  4  0
  4  5  4  0
 10 12  4  0
  1 13  4  0
  8 14  1  0
  7 15  1  0
  9 16  1  0
 10 17  4  0
 11 17  4  0
 11 18  4  0
 12 19  4  0
 18 19  4  0
  1 20  4  0
 20 21  4  0
  3 21  4  0
  4 21  4  0
  7 22  1  0
  8 22  1  0
 13 23  4  0
  3 23  4  0
  6 24  1  0
 20 24  1  0
  7 24  1  0
 15 25  1  0
 14 25  1  0
  9 25  1  0
 16 26  1  0
 10 26  1  0
  9 27  2  0
 19 28  1  0
 11 29  1  0
  2 30  1  0
  4 31  1  0
  5 32  1  0
  6 33  1  0
  6 34  1  0
  6 35  1  0
  7 36  1  6
  8 37  1  0
  8 38  1  0
 12 39  1  0
 13 40  1  0
 14 41  1  0
 14 42  1  0
 15 43  1  0
 15 44  1  0
 16 45  1  0
 16 46  1  0
 17 47  1  0
 18 48  1  0
 22 49  1  0
 22 50  1  0
 26 51  1  0
M  CHG  1   2   1
M  END
