7L81_UD4_AAA_301
     RDKit          3D

 66 68  0  0  0  0  0  0  0  0999 V2000
  -26.7332  -10.3153   17.6492 N   0  0  0  0  0  0  0  0  0  0  0  0
  -27.1119  -10.2130   16.3452 C   0  0  0  0  0  0  0  0  0  0  0  0
  -27.3989  -11.3429   15.6150 N   0  0  0  0  0  0  0  0  0  0  0  0
  -26.6448  -11.5245   18.2621 C   0  0  0  0  0  0  0  0  0  0  0  0
  -26.9471  -12.6828   17.5535 C   0  0  0  0  0  0  0  0  0  0  0  0
  -27.3304  -12.5685   16.2198 C   0  0  0  0  0  0  0  0  0  0  0  0
  -24.3873   -4.9679   20.0839 O   0  0  0  0  0  0  0  0  0  0  0  0
  -24.2997   -6.1032   19.5432 C   0  0  0  0  0  0  0  0  0  0  0  0
  -22.9486   -6.6997   19.3136 C   0  0  1  0  0  0  0  0  0  0  0  0
  -25.4817   -6.8425   19.1995 N   0  0  0  0  0  0  0  0  0  0  0  0
  -26.8404   -6.3449   19.4538 C   0  0  2  0  0  0  0  0  0  0  0  0
  -27.2135   -6.5927   20.9396 C   0  0  1  0  0  0  0  0  0  0  0  0
  -26.7864   -5.5194   21.7419 O   0  0  0  0  0  0  0  0  0  0  0  0
  -28.7269   -6.8559   21.0991 C   0  0  2  0  0  0  0  0  0  0  0  0
  -29.0457   -7.1405   22.5016 N   0  0  0  0  0  0  0  0  0  0  0  0
  -29.1330   -8.0632   20.1932 C   0  0  1  0  0  0  0  0  0  0  0  0
  -30.5985   -7.9866   19.7450 C   0  0  2  0  0  0  0  0  0  0  0  0
  -28.2843   -8.2542   19.0640 O   0  0  0  0  0  0  0  0  0  0  0  0
  -27.8584   -7.0228   18.5042 C   0  0  2  0  0  0  0  0  0  0  0  0
  -27.2481   -7.2601   17.2523 O   0  0  0  0  0  0  0  0  0  0  0  0
  -28.4541   -7.5652   16.0842 P   0  0  1  0  0  5  0  0  0  0  0  0
  -28.1448   -8.8900   15.4244 O   0  0  0  0  0  0  0  0  0  0  0  0
  -29.9695   -7.6650   16.8391 O   0  0  0  0  0  0  0  0  0  0  0  0
  -28.4012   -6.3292   14.9101 O   0  0  0  0  0  0  0  0  0  0  0  0
  -29.8607   -6.3693   14.0368 P   0  0  1  0  0  5  0  0  0  0  0  0
  -31.1608   -6.2323   15.1121 O   0  0  0  0  0  0  0  0  0  0  0  0
  -29.8980   -5.1881   13.0927 O   0  0  0  0  0  0  0  0  0  0  0  0
  -30.0138   -7.8238   13.1589 O   0  0  0  0  0  0  0  0  0  0  0  0
  -28.7530   -8.1829   12.6421 C   0  0  1  0  0  0  0  0  0  0  0  0
  -28.5673   -9.7007   12.7526 C   0  0  1  0  0  0  0  0  0  0  0  0
  -27.5457   -9.9876   13.6763 O   0  0  0  0  0  0  0  0  0  0  0  0
  -29.8404  -10.4132   13.2115 C   0  0  1  0  0  0  0  0  0  0  0  0
  -30.5932  -10.8654   12.1145 O   0  0  0  0  0  0  0  0  0  0  0  0
  -29.3210  -11.5640   14.0537 C   0  0  1  0  0  0  0  0  0  0  0  0
  -29.5173  -12.8001   13.4143 O   0  0  0  0  0  0  0  0  0  0  0  0
  -27.8215  -11.2668   14.2006 C   0  0  2  0  0  0  0  0  0  0  0  0
  -27.2017   -9.0692   15.8221 O   0  0  0  0  0  0  0  0  0  0  0  0
  -26.2938  -11.5978   19.4701 O   0  0  0  0  0  0  0  0  0  0  0  0
  -26.5124   -9.4476   18.1901 H   0  0  0  0  0  0  0  0  0  0  0  0
  -26.8887  -13.6561   18.0251 H   0  0  0  0  0  0  0  0  0  0  0  0
  -27.5720  -13.4719   15.6719 H   0  0  0  0  0  0  0  0  0  0  0  0
  -22.9889   -7.8050   19.4205 H   0  0  0  0  0  0  0  0  0  0  0  0
  -22.5941   -6.4573   18.2887 H   0  0  0  0  0  0  0  0  0  0  0  0
  -22.2325   -6.2875   20.0557 H   0  0  0  0  0  0  0  0  0  0  0  0
  -25.3720   -7.7274   18.6523 H   0  0  0  0  0  0  0  0  0  0  0  0
  -26.8873   -5.2512   19.2516 H   0  0  0  0  0  0  0  0  0  0  0  0
  -26.6872   -7.5053   21.2992 H   0  0  0  0  0  0  0  0  0  0  0  0
  -27.0714   -5.7066   22.6744 H   0  0  0  0  0  0  0  0  0  0  0  0
  -29.2806   -5.9424   20.7779 H   0  0  0  0  0  0  0  0  0  0  0  0
  -28.3018   -7.7644   22.8914 H   0  0  0  0  0  0  0  0  0  0  0  0
  -28.9770   -6.2500   23.0453 H   0  0  0  0  0  0  0  0  0  0  0  0
  -29.0366   -8.9872   20.8055 H   0  0  0  0  0  0  0  0  0  0  0  0
  -30.7828   -8.7282   18.9380 H   0  0  0  0  0  0  0  0  0  0  0  0
  -30.8462   -6.9757   19.3582 H   0  0  0  0  0  0  0  0  0  0  0  0
  -31.2768   -8.2196   20.5921 H   0  0  0  0  0  0  0  0  0  0  0  0
  -28.7159   -6.3143   18.3901 H   0  0  0  0  0  0  0  0  0  0  0  0
  -29.7718   -7.6632   17.8098 H   0  0  0  0  0  0  0  0  0  0  0  0
  -31.8596   -6.8276   14.7406 H   0  0  0  0  0  0  0  0  0  0  0  0
  -28.6725   -7.8866   11.5725 H   0  0  0  0  0  0  0  0  0  0  0  0
  -27.9281   -7.6983   13.2123 H   0  0  0  0  0  0  0  0  0  0  0  0
  -28.2572  -10.0907   11.7550 H   0  0  0  0  0  0  0  0  0  0  0  0
  -30.4660   -9.7527   13.8587 H   0  0  0  0  0  0  0  0  0  0  0  0
  -30.7646  -10.0718   11.5435 H   0  0  0  0  0  0  0  0  0  0  0  0
  -29.8433  -11.5624   15.0401 H   0  0  0  0  0  0  0  0  0  0  0  0
  -29.2410  -13.4980   14.0631 H   0  0  0  0  0  0  0  0  0  0  0  0
  -27.2392  -11.9949   13.5878 H   0  0  0  0  0  0  0  0  0  0  0  0
  1  2  1  0
  2  3  1  0
  1  4  1  0
  4  5  1  0
  3  6  1  0
  5  6  2  0
  7  8  2  0
  8  9  1  0
  8 10  1  0
 11 10  1  0
 11 12  1  0
 12 13  1  0
 12 14  1  0
 14 15  1  0
 14 16  1  0
 16 17  1  0
 16 18  1  0
 11 19  1  0
 18 19  1  0
 19 20  1  0
 21 20  1  1
 21 22  2  0
 21 23  1  0
 21 24  1  0
 25 24  1  1
 25 26  1  0
 25 27  2  0
 25 28  1  0
 28 29  1  0
 30 29  1  0
 30 31  1  0
 30 32  1  0
 32 33  1  0
 32 34  1  0
 34 35  1  0
 36  3  1  0
 31 36  1  0
 34 36  1  0
  2 37  2  0
  4 38  2  0
  1 39  1  0
  5 40  1  0
  6 41  1  0
  9 42  1  6
  9 43  1  0
  9 44  1  0
 10 45  1  0
 11 46  1  6
 12 47  1  1
 13 48  1  0
 14 49  1  6
 15 50  1  0
 15 51  1  0
 16 52  1  1
 17 53  1  6
 17 54  1  0
 17 55  1  0
 19 56  1  6
 23 57  1  0
 26 58  1  0
 29 59  1  6
 29 60  1  0
 30 61  1  6
 32 62  1  1
 33 63  1  0
 34 64  1  1
 35 65  1  0
 36 66  1  6
M  END
