
     RDKit          3D

 50 53  0  0  0  0  0  0  0  0999 V2000
  -83.8936   -8.3345   14.4756 O   0  0  0  0  0  0  0  0  0  0  0  0
  -84.3779   -8.7450   15.5244 C   0  0  0  0  0  0  0  0  0  0  0  0
  -83.6270   -9.6494   16.4175 C   0  0  0  0  0  0  0  0  0  0  0  0
  -84.1901  -10.0293   17.5659 C   0  0  0  0  0  0  0  0  0  0  0  0
  -85.6401   -8.4259   15.9245 N   0  0  0  0  0  0  0  0  0  0  0  0
  -86.2521   -8.8667   17.0665 C   0  0  0  0  0  0  0  0  0  0  0  0
  -87.4397   -8.6225   17.2633 O   0  0  0  0  0  0  0  0  0  0  0  0
  -85.4669   -9.6286   17.9266 N   0  0  0  0  0  0  0  0  0  0  0  0
  -86.0586   -9.9970   19.2211 C   0  0  2  0  0  0  0  0  0  0  0  0
  -85.2371  -10.9624   19.9033 O   0  0  0  0  0  0  0  0  0  0  0  0
  -87.4734  -10.5899   19.0997 C   0  0  2  0  0  0  0  0  0  0  0  0
  -88.5432   -9.6366   19.1294 O   0  0  0  0  0  0  0  0  0  0  0  0
  -87.5423  -11.4601   20.3444 C   0  0  2  0  0  0  0  0  0  0  0  0
  -87.9190  -10.6395   21.4688 O   0  0  0  0  0  0  0  0  0  0  0  0
  -86.1044  -11.9479   20.5190 C   0  0  1  0  0  0  0  0  0  0  0  0
  -85.8471  -13.3062   19.8589 C   0  0  0  0  0  0  0  0  0  0  0  0
  -86.8460  -13.6038   18.8957 O   0  0  0  0  0  0  0  0  0  0  0  0
  -86.3991  -13.6233   17.3590 P   0  0  2  0  0  5  0  0  0  0  0  0
  -86.1385  -12.3042   16.7139 O   0  0  0  0  0  0  0  0  0  0  0  0
  -87.5670  -14.4591   16.6585 O   0  0  0  0  0  0  0  0  0  0  0  0
  -85.1701  -14.6280   17.3384 O   0  0  0  0  0  0  0  0  0  0  0  0
  -83.8371  -14.2257   18.1076 P   0  0  2  0  0  5  0  0  0  0  0  0
  -83.5100  -15.0613   19.2971 O   0  0  0  0  0  0  0  0  0  0  0  0
  -84.0547  -12.6758   18.4403 O   0  0  0  0  0  0  0  0  0  0  0  0
  -82.7134  -14.1894   16.9632 O   0  0  0  0  0  0  0  0  0  0  0  0
  -81.4236  -14.6562   17.3129 C   0  0  2  0  0  0  0  0  0  0  0  0
  -81.4876  -15.2438   18.6121 O   0  0  0  0  0  0  0  0  0  0  0  0
  -80.2840  -15.9662   18.9581 C   0  0  2  0  0  0  0  0  0  0  0  0
  -80.3831  -16.2507   20.4507 C   0  0  0  0  0  0  0  0  0  0  0  0
  -79.0051  -15.2279   18.4776 C   0  0  1  0  0  0  0  0  0  0  0  0
  -79.2412  -13.7168   18.3019 C   0  0  2  0  0  0  0  0  0  0  0  0
  -79.4998  -13.0636   19.5564 O   0  0  0  0  0  0  0  0  0  0  0  0
  -80.4343  -13.4665   17.3516 C   0  0  2  0  0  0  0  0  0  0  0  0
  -81.0893  -12.2452   17.7602 O   0  0  0  0  0  0  0  0  0  0  0  0
  -77.7419  -15.5870   19.1769 N   0  0  0  0  0  0  0  0  0  0  0  0
  -77.2872  -16.7845   19.0246 C   0  0  0  0  0  0  0  0  0  0  0  0
  -76.0546  -17.2572   19.7053 C   0  0  0  0  0  0  0  0  0  0  0  0
  -76.0077  -17.3117   21.1068 C   0  0  0  0  0  0  0  0  0  0  0  0
  -77.0694  -16.9482   21.8972 O   0  0  0  0  0  0  0  0  0  0  0  0
  -74.8374  -17.7424   21.7207 C   0  0  0  0  0  0  0  0  0  0  0  0
  -74.7361  -17.8027   23.2127 C   0  0  0  0  0  0  0  0  0  0  0  0
  -74.9303  -17.6443   18.9470 C   0  0  0  0  0  0  0  0  0  0  0  0
  -73.8085  -18.0415   19.6643 C   0  0  0  0  0  0  0  0  0  0  0  0
  -73.7343  -18.0973   21.0123 N   0  0  0  0  0  0  0  0  0  0  0  0
  -74.8898  -17.5868   17.4349 C   0  0  0  0  0  0  0  0  0  0  0  0
  -73.8787  -16.7304   16.9338 O   0  0  0  0  0  0  0  0  0  0  0  0
  -74.2520  -15.1808   16.7940 P   0  0  0  0  0  5  0  0  0  0  0  0
  -73.0416  -14.5449   15.9713 O   0  0  0  0  0  0  0  0  0  0  0  0
  -75.6028  -14.8507   16.2605 O   0  0  0  0  0  0  0  0  0  0  0  0
  -73.9930  -14.6047   18.2594 O   0  0  0  0  0  0  0  0  0  0  0  0
  1  2  2  0
  2  3  4  0
  3  4  4  0
  2  5  4  0
  5  6  4  0
  6  7  2  0
  4  8  4  0
  6  8  4  0
  9  8  1  6
  9 10  1  0
  9 11  1  0
 11 12  1  1
 11 13  1  0
 13 14  1  1
 10 15  1  0
 13 15  1  0
 15 16  1  6
 16 17  1  0
 17 18  1  0
 18 19  2  0
 18 20  1  6
 18 21  1  0
 21 22  1  0
 22 23  2  0
 22 24  1  1
 22 25  1  0
 26 25  1  1
 26 27  1  0
 27 28  1  0
 28 29  1  1
 28 30  1  0
 30 31  1  0
 31 32  1  1
 31 33  1  0
 26 33  1  0
 33 34  1  1
 30 35  1  1
 35 36  2  0
 36 37  1  0
 37 38  4  0
 38 39  1  0
 38 40  4  0
 40 41  1  0
 37 42  4  0
 42 43  4  0
 40 44  4  0
 43 44  4  0
 42 45  1  0
 45 46  1  0
 46 47  1  0
 47 48  1  0
 47 49  2  0
 47 50  1  0
M  END
