7BA0_T5H_A_201
     RDKit          3D

110115  0  0  0  0  0  0  0  0999 V2000
  -19.9799   -2.6577   -4.9521 C   0  0  1  0  0  0  0  0  0  0  0  0
  -20.3792   -2.0286   -6.2875 C   0  0  2  0  0  0  0  0  0  0  0  0
  -19.6317   -0.7122   -6.4963 C   0  0  2  0  0  0  0  0  0  0  0  0
  -19.9322    0.2699   -5.3650 C   0  0  2  0  0  0  0  0  0  0  0  0
  -19.6346   -0.3331   -3.9839 C   0  0  1  0  0  0  0  0  0  0  0  0
  -20.2727   -1.7285   -3.7512 C   0  0  1  0  0  0  0  0  0  0  0  0
  -21.7817   -1.7713   -3.2890 C   0  0  2  0  0  0  0  0  0  0  0  0
  -22.4732   -0.4405   -3.0550 C   0  0  0  0  0  0  0  0  0  0  0  0
  -22.0484    0.3564   -2.1798 O   0  0  0  0  0  0  0  0  0  0  0  0
  -23.6996   -0.1320   -3.7415 N   0  0  0  0  0  0  0  0  0  0  0  0
  -24.8672   -1.0091   -3.6048 C   0  0  1  0  0  0  0  0  0  0  0  0
  -25.2143   -1.6557   -4.9576 C   0  0  1  0  0  0  0  0  0  0  0  0
  -24.6874   -0.8496   -6.1607 C   0  0  2  0  0  0  0  0  0  0  0  0
  -24.6922    0.6590   -5.8794 C   0  0  2  0  0  0  0  0  0  0  0  0
  -23.7858    1.0142   -4.6668 C   0  0  1  0  0  0  0  0  0  0  0  0
  -24.3033    2.2372   -3.9510 C   0  0  0  0  0  0  0  0  0  0  0  0
  -24.7052    3.2337   -4.6141 O   0  0  0  0  0  0  0  0  0  0  0  0
  -24.3185    2.2642   -2.5544 O   0  0  0  0  0  0  0  0  0  0  0  0
  -25.0006    3.2467   -1.7697 C   0  0  2  0  0  0  0  0  0  0  0  0
  -24.0353    4.3582   -1.3169 C   0  0  2  0  0  0  0  0  0  0  0  0
  -23.9873    5.5234   -2.3128 C   0  0  1  0  0  0  0  0  0  0  0  0
  -23.1264    6.6442   -1.7897 C   0  0  0  0  0  0  0  0  0  0  0  0
  -21.7587    6.4387   -1.5579 C   0  0  0  0  0  0  0  0  0  0  0  0
  -23.6901    7.8977   -1.5205 C   0  0  0  0  0  0  0  0  0  0  0  0
  -22.8937    8.9432   -1.0530 C   0  0  0  0  0  0  0  0  0  0  0  0
  -21.5147    8.7489   -0.8400 C   0  0  0  0  0  0  0  0  0  0  0  0
  -20.6797    9.7809   -0.3822 O   0  0  0  0  0  0  0  0  0  0  0  0
  -19.3097    9.6164   -0.0278 C   0  0  2  0  0  0  0  0  0  0  0  0
  -20.9437    7.4909   -1.0958 C   0  0  0  0  0  0  0  0  0  0  0  0
  -19.5652    7.3256   -0.8839 O   0  0  0  0  0  0  0  0  0  0  0  0
  -18.7341    6.4510   -1.6415 C   0  0  1  0  0  0  0  0  0  0  0  0
  -25.5971    2.5505   -0.5700 C   0  0  0  0  0  0  0  0  0  0  0  0
  -24.8184    1.6577    0.1841 C   0  0  0  0  0  0  0  0  0  0  0  0
  -26.9439    2.7431   -0.2202 C   0  0  0  0  0  0  0  0  0  0  0  0
  -27.5095    2.0142    0.8335 C   0  0  0  0  0  0  0  0  0  0  0  0
  -26.7423    1.0883    1.5415 C   0  0  0  0  0  0  0  0  0  0  0  0
  -25.3885    0.9100    1.2157 C   0  0  0  0  0  0  0  0  0  0  0  0
  -24.5781   -0.0072    1.8846 O   0  0  0  0  0  0  0  0  0  0  0  0
  -25.0385   -1.2563    2.4017 C   0  0  2  0  0  0  0  0  0  0  0  0
  -23.8495   -2.2234    2.3982 C   0  0  1  0  0  0  0  0  0  0  0  0
  -22.9018   -1.7954    3.3391 O   0  0  0  0  0  0  0  0  0  0  0  0
  -24.2429   -3.6851    2.7040 C   0  0  1  0  0  0  0  0  0  0  0  0
  -25.2446   -4.1232    1.8186 O   0  0  0  0  0  0  0  0  0  0  0  0
  -23.0304   -4.6432    2.6043 C   0  0  1  0  0  0  0  0  0  0  0  0
  -22.8044   -5.1205    1.2709 O   0  0  0  0  0  0  0  0  0  0  0  0
  -22.4525   -4.3366    0.1580 C   0  0  0  0  0  0  0  0  0  0  0  0
  -21.4605   -3.3339    0.2171 C   0  0  0  0  0  0  0  0  0  0  0  0
  -20.6948   -3.1930    1.3857 O   0  0  0  0  0  0  0  0  0  0  0  0
  -19.2910   -3.4098    1.4631 C   0  0  2  0  0  0  0  0  0  0  0  0
  -21.2633   -2.4919   -0.8959 C   0  0  0  0  0  0  0  0  0  0  0  0
  -21.9818   -2.6866   -2.0872 C   0  0  0  0  0  0  0  0  0  0  0  0
  -22.8835   -3.7598   -2.1643 C   0  0  0  0  0  0  0  0  0  0  0  0
  -23.1279   -4.5780   -1.0468 C   0  0  0  0  0  0  0  0  0  0  0  0
  -24.0499   -5.6353   -1.0925 O   0  0  0  0  0  0  0  0  0  0  0  0
  -24.7321   -6.0611   -2.2674 C   0  0  1  0  0  0  0  0  0  0  0  0
  -20.4968   -3.6358   -4.8305 H   0  0  0  0  0  0  0  0  0  0  0  0
  -18.8899   -2.8930   -4.9780 H   0  0  0  0  0  0  0  0  0  0  0  0
  -21.4752   -1.8564   -6.3141 H   0  0  0  0  0  0  0  0  0  0  0  0
  -20.1264   -2.7320   -7.1130 H   0  0  0  0  0  0  0  0  0  0  0  0
  -19.9300   -0.2677   -7.4692 H   0  0  0  0  0  0  0  0  0  0  0  0
  -18.5378   -0.9132   -6.5386 H   0  0  0  0  0  0  0  0  0  0  0  0
  -20.9859    0.5942   -5.4331 H   0  0  0  0  0  0  0  0  0  0  0  0
  -19.3059    1.1759   -5.5091 H   0  0  0  0  0  0  0  0  0  0  0  0
  -18.5297   -0.4391   -3.8904 H   0  0  0  0  0  0  0  0  0  0  0  0
  -19.9310    0.3844   -3.1944 H   0  0  0  0  0  0  0  0  0  0  0  0
  -19.6812   -2.1804   -2.9231 H   0  0  0  0  0  0  0  0  0  0  0  0
  -22.3429   -2.2290   -4.1302 H   0  0  0  0  0  0  0  0  0  0  0  0
  -24.6959   -1.7904   -2.8363 H   0  0  0  0  0  0  0  0  0  0  0  0
  -25.7295   -0.4003   -3.2574 H   0  0  0  0  0  0  0  0  0  0  0  0
  -24.7907   -2.6802   -5.0010 H   0  0  0  0  0  0  0  0  0  0  0  0
  -26.3174   -1.7523   -5.0371 H   0  0  0  0  0  0  0  0  0  0  0  0
  -25.3075   -1.0679   -7.0572 H   0  0  0  0  0  0  0  0  0  0  0  0
  -23.6494   -1.1686   -6.3884 H   0  0  0  0  0  0  0  0  0  0  0  0
  -25.7441    0.9775   -5.6941 H   0  0  0  0  0  0  0  0  0  0  0  0
  -24.3365    1.1986   -6.7848 H   0  0  0  0  0  0  0  0  0  0  0  0
  -22.7742    1.2528   -5.0538 H   0  0  0  0  0  0  0  0  0  0  0  0
  -25.8262    3.7004   -2.3646 H   0  0  0  0  0  0  0  0  0  0  0  0
  -23.0117    3.9411   -1.1926 H   0  0  0  0  0  0  0  0  0  0  0  0
  -24.3760    4.7484   -0.3302 H   0  0  0  0  0  0  0  0  0  0  0  0
  -23.5753    5.1703   -3.2815 H   0  0  0  0  0  0  0  0  0  0  0  0
  -25.0170    5.9023   -2.5008 H   0  0  0  0  0  0  0  0  0  0  0  0
  -21.3375    5.4629   -1.7521 H   0  0  0  0  0  0  0  0  0  0  0  0
  -24.7495    8.0633   -1.6783 H   0  0  0  0  0  0  0  0  0  0  0  0
  -23.3578    9.9022   -0.8660 H   0  0  0  0  0  0  0  0  0  0  0  0
  -19.1466    9.9102    1.0280 H   0  0  0  0  0  0  0  0  0  0  0  0
  -18.6664   10.2245   -0.6975 H   0  0  0  0  0  0  0  0  0  0  0  0
  -19.0273    8.5511   -0.1470 H   0  0  0  0  0  0  0  0  0  0  0  0
  -17.9815    7.0338   -2.2130 H   0  0  0  0  0  0  0  0  0  0  0  0
  -18.1989    5.7679   -0.9510 H   0  0  0  0  0  0  0  0  0  0  0  0
  -19.3543    5.8410   -2.3310 H   0  0  0  0  0  0  0  0  0  0  0  0
  -23.7752    1.5005   -0.0632 H   0  0  0  0  0  0  0  0  0  0  0  0
  -27.5629    3.4414   -0.7691 H   0  0  0  0  0  0  0  0  0  0  0  0
  -28.5499    2.1570    1.0917 H   0  0  0  0  0  0  0  0  0  0  0  0
  -27.1959    0.5175    2.3426 H   0  0  0  0  0  0  0  0  0  0  0  0
  -25.8460   -1.6492    1.7493 H   0  0  0  0  0  0  0  0  0  0  0  0
  -25.4323   -1.1178    3.4321 H   0  0  0  0  0  0  0  0  0  0  0  0
  -23.4178   -2.1830    1.3791 H   0  0  0  0  0  0  0  0  0  0  0  0
  -23.3930   -1.3879    4.0966 H   0  0  0  0  0  0  0  0  0  0  0  0
  -24.6068   -3.7220    3.7620 H   0  0  0  0  0  0  0  0  0  0  0  0
  -25.9225   -3.4018    1.7642 H   0  0  0  0  0  0  0  0  0  0  0  0
  -22.1114   -4.2026    3.0390 H   0  0  0  0  0  0  0  0  0  0  0  0
  -23.2557   -5.5339    3.2288 H   0  0  0  0  0  0  0  0  0  0  0  0
  -19.0591   -3.9015    2.4301 H   0  0  0  0  0  0  0  0  0  0  0  0
  -18.7527   -2.4380    1.4239 H   0  0  0  0  0  0  0  0  0  0  0  0
  -18.9568   -4.0701    0.6355 H   0  0  0  0  0  0  0  0  0  0  0  0
  -20.5476   -1.6874   -0.8404 H   0  0  0  0  0  0  0  0  0  0  0  0
  -23.4154   -3.9392   -3.0894 H   0  0  0  0  0  0  0  0  0  0  0  0
  -25.4190   -6.9015   -2.0284 H   0  0  0  0  0  0  0  0  0  0  0  0
  -25.2976   -5.2158   -2.7117 H   0  0  0  0  0  0  0  0  0  0  0  0
  -23.9906   -6.4169   -3.0113 H   0  0  0  0  0  0  0  0  0  0  0  0
  1  2  1  0
  2  3  1  0
  3  4  1  0
  4  5  1  0
  1  6  1  0
  5  6  1  0
  7  6  1  0
  7  8  1  0
  8  9  2  0
  8 10  1  0
 10 11  1  0
 11 12  1  0
 12 13  1  0
 13 14  1  0
 15 14  1  0
 10 15  1  0
 15 16  1  0
 16 17  2  0
 16 18  1  0
 18 19  1  0
 19 20  1  0
 20 21  1  0
 21 22  1  0
 22 23  2  0
 22 24  1  0
 24 25  2  0
 25 26  1  0
 26 27  1  0
 27 28  1  0
 26 29  2  0
 23 29  1  0
 29 30  1  0
 30 31  1  0
 19 32  1  0
 32 33  2  0
 32 34  1  0
 34 35  2  0
 35 36  1  0
 36 37  2  0
 33 37  1  0
 37 38  1  0
 38 39  1  0
 39 40  1  0
 40 41  1  0
 40 42  1  0
 42 43  1  0
 42 44  1  0
 44 45  1  0
 45 46  1  0
 46 47  2  0
 47 48  1  0
 48 49  1  0
 47 50  1  0
  7 51  1  0
 50 51  2  0
 51 52  1  0
 52 53  2  0
 46 53  1  0
 53 54  1  0
 54 55  1  0
  1 56  1  1
  1 57  1  0
  2 58  1  1
  2 59  1  0
  3 60  1  6
  3 61  1  0
  4 62  1  1
  4 63  1  0
  5 64  1  6
  5 65  1  0
  6 66  1  1
  7 67  1  6
 11 68  1  1
 11 69  1  0
 12 70  1  1
 12 71  1  0
 13 72  1  6
 13 73  1  0
 14 74  1  1
 14 75  1  0
 15 76  1  6
 19 77  1  6
 20 78  1  1
 20 79  1  0
 21 80  1  6
 21 81  1  0
 23 82  1  0
 24 83  1  0
 25 84  1  0
 28 85  1  1
 28 86  1  0
 28 87  1  0
 31 88  1  6
 31 89  1  0
 31 90  1  0
 33 91  1  0
 34 92  1  0
 35 93  1  0
 36 94  1  0
 39 95  1  6
 39 96  1  0
 40 97  1  6
 41 98  1  0
 42 99  1  1
 43100  1  0
 44101  1  1
 44102  1  0
 49103  1  1
 49104  1  0
 49105  1  0
 50106  1  0
 52107  1  0
 55108  1  1
 55109  1  0
 55110  1  0
M  END
