1XM6_5RM_A_1003
     RDKit          3D

 19 20  0  0  0  0  0  0  0  0999 V2000
   64.1040    4.1823    1.1447 O   0  0  0  0  0  0  0  0  0  0  0  0
   64.9995    3.4021    0.8259 C   0  0  0  0  0  0  0  0  0  0  0  0
   64.8045    2.5257   -0.2917 O   0  0  0  0  0  0  0  0  0  0  0  0
   66.3225    3.5448    1.0103 N   0  0  0  0  0  0  0  0  0  0  0  0
   67.1047    2.7120    0.1161 C   0  0  0  0  0  0  0  0  0  0  0  0
   66.0358    1.9009   -0.6334 C   0  0  2  0  0  0  0  0  0  0  0  0
   66.1532    2.0186   -2.1576 C   0  0  0  0  0  0  0  0  0  0  0  0
   66.0345    0.4382   -0.2410 C   0  0  0  0  0  0  0  0  0  0  0  0
   67.1133   -0.3871   -0.5785 C   0  0  0  0  0  0  0  0  0  0  0  0
   67.1142   -1.7375   -0.2347 C   0  0  0  0  0  0  0  0  0  0  0  0
   66.0103   -2.2893    0.4215 C   0  0  0  0  0  0  0  0  0  0  0  0
   65.9613   -3.6115    0.7752 O   0  0  0  0  0  0  0  0  0  0  0  0
   67.0090   -4.5614    0.5403 C   0  0  0  0  0  0  0  0  0  0  0  0
   64.9207   -1.4778    0.7674 C   0  0  0  0  0  0  0  0  0  0  0  0
   64.9453   -0.1256    0.4247 C   0  0  0  0  0  0  0  0  0  0  0  0
   63.8515   -2.0485    1.4523 O   0  0  0  0  0  0  0  0  0  0  0  0
   62.6834   -1.3263    1.8442 C   0  0  0  0  0  0  0  0  0  0  0  0
   61.8895   -2.1664    2.8428 C   0  0  0  0  0  0  0  0  0  0  0  0
   62.4304   -1.9129    4.2298 C   0  0  0  0  0  0  0  0  0  0  0  0
  1  2  2  0
  2  3  1  0
  2  4  1  0
  4  5  1  0
  3  6  1  0
  5  6  1  0
  6  7  1  6
  6  8  1  0
  8  9  2  0
  9 10  1  0
 10 11  2  0
 11 12  1  0
 12 13  1  0
 11 14  1  0
  8 15  1  0
 14 15  2  0
 14 16  1  0
 16 17  1  0
 17 18  1  0
 18 19  1  0
M  END
