
     RDKit          3D

 33 34  0  0  0  0  0  0  0  0999 V2000
  -55.0768   95.9451   21.8427 C   0  0  0  0  0  0  0  0  0  0  0  0
  -53.0489   95.0427   20.6331 C   0  0  0  0  0  0  0  0  0  0  0  0
  -54.0978   96.1094   20.8513 C   0  0  0  0  0  0  0  0  0  0  0  0
  -56.0658   96.9110   22.0256 C   0  0  0  0  0  0  0  0  0  0  0  0
  -56.0812   98.0422   21.2184 C   0  0  0  0  0  0  0  0  0  0  0  0
  -55.1180   98.2272   20.2326 C   0  0  0  0  0  0  0  0  0  0  0  0
  -54.1253   97.2612   20.0505 C   0  0  0  0  0  0  0  0  0  0  0  0
  -50.4473   94.1092   26.9705 C   0  0  0  0  0  0  0  0  0  0  0  0
  -51.6439   93.3637   27.5786 C   0  0  0  0  0  0  0  0  0  0  0  0
  -49.4772   93.2118   26.1765 C   0  0  0  0  0  0  0  0  0  0  0  0
  -50.9519   99.9681   23.4914 C   0  0  0  0  0  0  0  0  0  0  0  0
  -52.0073   99.0600   24.1053 C   0  0  0  0  0  0  0  0  0  0  0  0
  -51.4134   97.8225   24.7816 C   0  0  0  0  0  0  0  0  0  0  0  0
  -52.4819   96.8744   25.3496 C   0  0  0  0  0  0  0  0  0  0  0  0
  -51.9803   95.4195   25.4541 C   0  0  1  0  0  0  0  0  0  0  0  0
  -51.5509   94.8669   24.0621 C   0  0  0  0  0  0  0  0  0  0  0  0
  -51.8805   95.1236   21.6259 C   0  0  1  0  0  0  0  0  0  0  0  0
  -51.0549   96.3619   21.2911 C   0  0  0  0  0  0  0  0  0  0  0  0
  -49.3443   91.7344   26.5684 C   0  0  0  0  0  0  0  0  0  0  0  0
  -48.4188   91.4332   27.7200 C   0  0  0  0  0  0  0  0  0  0  0  0
  -48.4740   90.2028   28.3890 C   0  0  0  0  0  0  0  0  0  0  0  0
  -47.6295   89.9429   29.4700 C   0  0  0  0  0  0  0  0  0  0  0  0
  -46.7311   90.9147   29.9029 C   0  0  0  0  0  0  0  0  0  0  0  0
  -46.6776   92.1465   29.2558 C   0  0  0  0  0  0  0  0  0  0  0  0
  -47.5182   92.4046   28.1725 C   0  0  0  0  0  0  0  0  0  0  0  0
  -52.3500   95.2365   23.0085 N   0  0  0  0  0  0  0  0  0  0  0  0
  -50.7964   95.4067   26.3406 N   0  0  0  0  0  0  0  0  0  0  0  0
  -49.9193   96.3735   20.8390 O   0  0  0  0  0  0  0  0  0  0  0  0
  -51.6789   97.5155   21.6023 O   0  0  0  0  0  0  0  0  0  0  0  0
  -57.0752   98.9532   21.4212 O   0  0  0  0  0  0  0  0  0  0  0  0
  -50.6076   94.0849   23.9263 O   0  0  0  0  0  0  0  0  0  0  0  0
  -52.2730   92.4272   27.1103 O   0  0  0  0  0  0  0  0  0  0  0  0
  -52.0161   93.8825   28.7708 O   0  0  0  0  0  0  0  0  0  0  0  0
  1  3  4  0
  2  3  1  0
  1  4  4  0
  4  5  4  0
  5  6  4  0
  6  7  4  0
  3  7  4  0
  8  9  1  0
  8 10  1  0
 11 12  1  0
 12 13  1  0
 13 14  1  0
 15 14  1  6
 15 16  1  0
 17  2  1  6
 17 18  1  0
 10 19  1  0
 19 20  1  0
 20 21  4  0
 21 22  4  0
 22 23  4  0
 23 24  4  0
 24 25  4  0
 20 25  4  0
 16 26  1  0
 17 26  1  0
 15 27  1  0
  8 27  1  0
 18 28  2  0
 18 29  1  0
  5 30  1  0
 16 31  2  0
  9 32  2  0
  9 33  1  0
M  END
