
     RDKit          3D

 27 31  0  0  0  0  0  0  0  0999 V2000
  -14.4960  -19.7031  151.4896 C   0  0  0  0  0  0  0  0  0  0  0  0
  -13.5309  -18.8675  152.0603 C   0  0  0  0  0  0  0  0  0  0  0  0
  -11.9701  -20.7209  152.2259 C   0  0  0  0  0  0  0  0  0  0  0  0
  -18.1960  -22.9030  149.3709 C   0  0  0  0  0  0  0  0  0  0  0  0
  -18.6429  -24.1587  148.9709 C   0  0  0  0  0  0  0  0  0  0  0  0
  -13.4912  -23.8528  150.8362 C   0  0  0  0  0  0  0  0  0  0  0  0
  -15.7097  -26.4837  149.8449 C   0  0  0  0  0  0  0  0  0  0  0  0
  -12.2832  -19.3799  152.4225 C   0  0  0  0  0  0  0  0  0  0  0  0
  -14.8188  -23.3546  150.5246 C   0  0  0  0  0  0  0  0  0  0  0  0
  -16.9025  -22.8324  149.8799 C   0  0  0  0  0  0  0  0  0  0  0  0
  -15.0882  -22.0229  150.7272 C   0  0  0  0  0  0  0  0  0  0  0  0
  -16.5087  -25.2104  149.6398 C   0  0  0  0  0  0  0  0  0  0  0  0
  -17.8218  -25.2787  149.1099 C   0  0  0  0  0  0  0  0  0  0  0  0
  -14.8703  -26.8086  148.6775 N   0  0  0  0  0  0  0  0  0  0  0  0
  -12.9399  -21.5397  151.6563 C   0  0  0  0  0  0  0  0  0  0  0  0
  -15.6775  -27.3270  147.5732 C   0  0  0  0  0  0  0  0  0  0  0  0
  -14.8436  -27.3581  146.2869 C   0  0  0  0  0  0  0  0  0  0  0  0
  -13.3834  -27.7505  146.5242 C   0  0  0  0  0  0  0  0  0  0  0  0
  -13.2337  -28.5265  147.8242 C   0  0  0  0  0  0  0  0  0  0  0  0
  -13.7742  -27.7302  149.0220 C   0  0  0  0  0  0  0  0  0  0  0  0
  -16.0296  -23.9198  150.0068 C   0  0  0  0  0  0  0  0  0  0  0  0
  -14.1975  -21.0473  151.2865 C   0  0  0  0  0  0  0  0  0  0  0  0
  -16.3281  -21.6815  150.3300 O   0  0  0  0  0  0  0  0  0  0  0  0
  -12.6105  -22.9105  151.4437 O   0  0  0  0  0  0  0  0  0  0  0  0
  -13.0811  -24.9752  150.5656 O   0  0  0  0  0  0  0  0  0  0  0  0
  -18.3106  -26.5017  148.7265 O   0  0  0  0  0  0  0  0  0  0  0  0
  -11.3843  -18.5157  152.9749 O   0  0  0  0  0  0  0  0  0  0  0  0
  1  2  4  0
  4  5  4  0
  3  8  4  0
  2  8  4  0
  6  9  4  0
  4 10  4  0
  9 11  4  0
  7 12  1  0
 12 13  4  0
  5 13  4  0
  7 14  1  0
  3 15  4  0
 14 16  1  0
 16 17  1  0
 17 18  1  0
 18 19  1  0
 14 20  1  0
 19 20  1  0
  9 21  4  0
 10 21  4  0
 12 21  4  0
 15 22  4  0
  1 22  4  0
 11 22  4  0
 11 23  4  0
 10 23  4  0
 15 24  4  0
  6 24  4  0
  6 25  2  0
 13 26  1  0
  8 27  1  0
M  END
