
     RDKit          3D

 27 30  0  0  0  0  0  0  0  0999 V2000
   43.1256  -26.5995   11.0856 C   0  0  0  0  0  0  0  0  0  0  0  0
   35.1986  -25.2640    7.3035 C   0  0  0  0  0  0  0  0  0  0  0  0
   36.4810  -24.9788    7.7665 C   0  0  0  0  0  0  0  0  0  0  0  0
   36.8509  -25.3328    9.0652 C   0  0  0  0  0  0  0  0  0  0  0  0
   35.8656  -25.3082   12.3617 C   0  0  0  0  0  0  0  0  0  0  0  0
   39.9937  -27.7272   13.6431 C   0  0  0  0  0  0  0  0  0  0  0  0
   41.2698  -27.6275   14.2233 C   0  0  0  0  0  0  0  0  0  0  0  0
   42.3665  -27.2622   13.4470 C   0  0  0  0  0  0  0  0  0  0  0  0
   41.0299  -26.7422   10.0791 C   0  0  0  0  0  0  0  0  0  0  0  0
   40.1233  -26.6502    9.0360 C   0  0  0  0  0  0  0  0  0  0  0  0
   40.5872  -26.2662    7.7681 C   0  0  0  0  0  0  0  0  0  0  0  0
   42.1392  -27.0103   12.1042 C   0  0  0  0  0  0  0  0  0  0  0  0
   41.9445  -25.9732    7.5447 C   0  0  0  0  0  0  0  0  0  0  0  0
   42.8652  -26.0587    8.5862 C   0  0  0  0  0  0  0  0  0  0  0  0
   42.3803  -26.4409    9.8233 C   0  0  0  0  0  0  0  0  0  0  0  0
   40.8785  -27.0985   11.4828 C   0  0  0  0  0  0  0  0  0  0  0  0
   39.7959  -27.4597   12.2722 C   0  0  0  0  0  0  0  0  0  0  0  0
   38.4336  -27.6009   11.7300 C   0  0  0  0  0  0  0  0  0  0  0  0
   36.3621  -26.3352   11.3314 C   0  0  1  0  0  0  0  0  0  0  0  0
   35.9438  -25.9848    9.9157 C   0  0  0  0  0  0  0  0  0  0  0  0
   34.6496  -26.2549    9.4384 C   0  0  0  0  0  0  0  0  0  0  0  0
   34.2830  -25.8998    8.1388 C   0  0  0  0  0  0  0  0  0  0  0  0
   37.8169  -26.4169   11.4073 N   0  0  0  0  0  0  0  0  0  0  0  0
   44.3121  -26.4200   11.2595 O   0  0  0  0  0  0  0  0  0  0  0  0
   34.5364  -25.3772   12.5915 O   0  0  0  0  0  0  0  0  0  0  0  0
   36.5433  -24.4572   12.9246 O   0  0  0  0  0  0  0  0  0  0  0  0
   37.9164  -28.7032   11.6212 O   0  0  0  0  0  0  0  0  0  0  0  0
  2  3  4  0
  3  4  4  0
  6  7  4  0
  7  8  4  0
  9 10  4  0
 10 11  4  0
  1 12  1  0
  8 12  4  0
 11 13  4  0
 13 14  4  0
 14 15  4  0
  9 15  4  0
  1 15  1  0
  9 16  1  0
 12 16  4  0
 16 17  4  0
  6 17  4  0
 17 18  1  0
  5 19  1  0
  4 20  4  0
 19 20  1  0
 20 21  4  0
  2 22  4  0
 21 22  4  0
 19 23  1  6
 18 23  1  0
  1 24  2  0
  5 25  1  0
  5 26  2  0
 18 27  2  0
M  END
