
     RDKit          3D

 38 43  0  0  0  0  0  0  0  0999 V2000
  -20.9139   13.5001   20.3777 C   0  0  0  0  0  0  0  0  0  0  0  0
  -22.0970   14.0665   18.1715 C   0  0  2  0  0  0  0  0  0  0  0  0
  -22.6868   15.4581   18.0264 C   0  0  0  0  0  0  0  0  0  0  0  0
  -24.1565   15.8256   18.0871 C   0  0  0  0  0  0  0  0  0  0  0  0
  -23.2372   16.2110   19.2239 C   0  0  0  0  0  0  0  0  0  0  0  0
  -22.7619   11.7599   18.8860 C   0  0  0  0  0  0  0  0  0  0  0  0
  -23.5068    8.8342   10.1495 C   0  0  0  0  0  0  0  0  0  0  0  0
  -22.1187    8.3843    9.6744 C   0  0  1  0  0  0  0  0  0  0  0  0
  -21.1186    9.5385    9.7544 C   0  0  0  0  0  0  0  0  0  0  0  0
  -21.0621   10.1262   11.1712 C   0  0  2  0  0  0  0  0  0  0  0  0
  -21.7678   11.3054   19.6852 C   0  0  0  0  0  0  0  0  0  0  0  0
  -21.5456    9.8250   19.8717 C   0  0  0  0  0  0  0  0  0  0  0  0
  -20.5924    9.4363   20.5500 O   0  0  0  0  0  0  0  0  0  0  0  0
  -20.8862   12.0770   20.4175 O   0  0  0  0  0  0  0  0  0  0  0  0
  -23.0793   13.1173   18.7265 N   0  0  0  0  0  0  0  0  0  0  0  0
  -20.7757   14.1056   18.9876 C   0  0  2  0  0  0  0  0  0  0  0  0
  -19.7931   13.4669   18.2945 F   0  0  0  0  0  0  0  0  0  0  0  0
  -20.3319   15.3914   19.1203 F   0  0  0  0  0  0  0  0  0  0  0  0
  -22.4386    8.9453   19.2784 N   0  0  0  0  0  0  0  0  0  0  0  0
  -22.2447    7.5211   19.5135 C   0  0  0  0  0  0  0  0  0  0  0  0
  -23.4262    9.3913   18.3626 C   0  0  0  0  0  0  0  0  0  0  0  0
  -24.2094    8.4710   17.6419 C   0  0  0  0  0  0  0  0  0  0  0  0
  -25.0925    8.8949   16.6503 C   0  0  0  0  0  0  0  0  0  0  0  0
  -25.2221   10.2490   16.3488 C   0  0  0  0  0  0  0  0  0  0  0  0
  -24.4646   11.1640   17.0922 C   0  0  0  0  0  0  0  0  0  0  0  0
  -23.5769   10.7668   18.1203 C   0  0  0  0  0  0  0  0  0  0  0  0
  -26.0465   10.6380   15.2794 N   0  0  0  0  0  0  0  0  0  0  0  0
  -25.9529   10.3230   13.9015 C   0  0  0  0  0  0  0  0  0  0  0  0
  -27.1058   10.3310   13.1269 C   0  0  0  0  0  0  0  0  0  0  0  0
  -28.6558   10.7574   13.7406 Cl  0  0  0  0  0  0  0  0  0  0  0  0
  -26.9483    9.9846   11.8122 C   0  0  0  0  0  0  0  0  0  0  0  0
  -25.7565    9.6712   11.2658 N   0  0  0  0  0  0  0  0  0  0  0  0
  -24.6711    9.6993   12.0589 C   0  0  0  0  0  0  0  0  0  0  0  0
  -24.7541    9.9930   13.3694 N   0  0  0  0  0  0  0  0  0  0  0  0
  -23.4086    9.3983   11.5097 N   0  0  0  0  0  0  0  0  0  0  0  0
  -22.4660   10.5176   11.6602 C   0  0  0  0  0  0  0  0  0  0  0  0
  -20.1151   11.3262   11.2259 C   0  0  0  0  0  0  0  0  0  0  0  0
  -21.6607    7.3037   10.4951 O   0  0  0  0  0  0  0  0  0  0  0  0
  2  3  1  1
  3  4  1  0
  4  5  1  0
  3  5  1  0
  7  8  1  0
  8  9  1  0
  9 10  1  0
  6 11  4  0
 11 12  4  0
 12 13  2  0
 11 14  1  0
  1 14  1  0
  6 15  1  0
  2 15  1  0
  2 16  1  0
  1 16  1  0
 16 17  1  6
 16 18  1  0
 12 19  4  0
 19 20  1  0
 19 21  4  0
 21 22  4  0
 22 23  4  0
 23 24  4  0
 24 25  4  0
 25 26  4  0
 21 26  4  0
  6 26  4  0
 24 27  1  0
 27 28  1  0
 28 29  4  0
 29 30  1  0
 29 31  4  0
 31 32  4  0
 32 33  4  0
 33 34  4  0
 28 34  4  0
 33 35  1  0
  7 35  1  0
 10 36  1  0
 35 36  1  0
 10 37  1  6
  8 38  1  1
M  END
