
     RDKit          3D

 11 11  0  0  0  0  0  0  0  0999 V2000
    2.9528   14.1303    9.1441 C   0  0  0  0  0  0  0  0  0  0  0  0
    1.5775   13.7164    9.3132 N   0  0  0  0  0  0  0  0  0  0  0  0
    0.8440   13.7336   10.4970 C   0  0  0  0  0  0  0  0  0  0  0  0
    1.4469   14.2780   11.7410 C   0  0  0  0  0  0  0  0  0  0  0  0
    0.8925   14.3657   12.9052 N   0  0  0  0  0  0  0  0  0  0  0  0
   -0.4003   13.9218   13.0184 N   0  0  0  0  0  0  0  0  0  0  0  0
   -0.9795   14.0040   14.3473 C   0  0  0  0  0  0  0  0  0  0  0  0
   -1.1224   13.3563   11.9726 C   0  0  0  0  0  0  0  0  0  0  0  0
   -2.2660   12.9198   12.0977 O   0  0  0  0  0  0  0  0  0  0  0  0
   -0.4167   13.3028   10.6593 C   0  0  0  0  0  0  0  0  0  0  0  0
   -1.2970   12.6275    9.3243 Cl  0  0  0  0  0  0  0  0  0  0  0  0
  1  2  1  0
  2  3  1  0
  3  4  4  0
  4  5  4  0
  5  6  4  0
  6  7  1  0
  6  8  4  0
  8  9  2  0
  8 10  4  0
  3 10  4  0
 10 11  1  0
M  END
