8BPL_CP_A_2401
     RDKit          3D

 12 11  0  0  0  0  0  0  0  0999 V2000
  -30.5034   30.3207   15.4552 N   0  0  0  0  0  0  0  0  0  0  0  0
  -30.6413   30.9793   14.2339 C   0  0  0  0  0  0  0  0  0  0  0  0
  -31.2450   30.4731   13.3286 O   0  0  0  0  0  0  0  0  0  0  0  0
  -30.0638   32.2366   14.2625 O   0  0  0  0  0  0  0  0  0  0  0  0
  -30.3429   33.2115   15.5480 P   0  0  2  0  0  5  0  0  0  0  0  0
  -31.1817   32.4130   16.5200 O   0  0  0  0  0  0  0  0  0  0  0  0
  -30.9755   34.5207   15.0627 O   0  0  0  0  0  0  0  0  0  0  0  0
  -28.9172   33.3567   16.0312 O   0  0  0  0  0  0  0  0  0  0  0  0
  -30.8713   29.4147   15.5701 H   0  0  0  0  0  0  0  0  0  0  0  0
  -30.0381   30.7618   16.2026 H   0  0  0  0  0  0  0  0  0  0  0  0
  -31.8842   34.3504   14.7701 H   0  0  0  0  0  0  0  0  0  0  0  0
  -28.5857   32.4930   16.3206 H   0  0  0  0  0  0  0  0  0  0  0  0
  1  2  1  0
  2  3  2  0
  2  4  1  0
  5  4  1  6
  5  6  2  0
  5  7  1  0
  5  8  1  0
  1  9  1  0
  1 10  1  0
  7 11  1  0
  8 12  1  0
M  END
