7BLG_GAL_A_201
     RDKit          3D

 12 12  0  0  0  0  0  0  0  0999 V2000
  -30.7528    4.5129   -9.2206 C   0  0  2  0  0  0  0  0  0  0  0  0
  -30.2984    4.8047  -10.6130 C   0  0  1  0  0  0  0  0  0  0  0  0
  -29.3192    3.7381  -11.0166 C   0  0  2  0  0  0  0  0  0  0  0  0
  -30.1255    2.4472  -11.0087 C   0  0  2  0  0  0  0  0  0  0  0  0
  -30.6085    2.2162   -9.6120 C   0  0  1  0  0  0  0  0  0  0  0  0
  -29.8241    1.0581   -8.9806 C   0  0  0  0  0  0  0  0  0  0  0  0
  -30.0564    5.4153   -8.3943 O   0  0  0  0  0  0  0  0  0  0  0  0
  -31.3709    4.7461  -11.5234 O   0  0  0  0  0  0  0  0  0  0  0  0
  -28.2163    3.6541  -10.2057 O   0  0  0  0  0  0  0  0  0  0  0  0
  -29.3726    1.4036  -11.5026 O   0  0  0  0  0  0  0  0  0  0  0  0
  -30.5150    3.2632   -8.7501 O   0  0  0  0  0  0  0  0  0  0  0  0
  -30.4784    0.5452   -7.8725 O   0  0  0  0  0  0  0  0  0  0  0  0
  1  2  1  0
  2  3  1  0
  3  4  1  0
  4  5  1  0
  5  6  1  0
  1  7  1  1
  2  8  1  6
  3  9  1  1
  4 10  1  1
  1 11  1  0
  5 11  1  1
  6 12  1  6
M  END
$$$$
