1Q41_IXM_B_452
     RDKit          3D

 21 24  0  0  0  0  0  0  0  0999 V2000
   24.9610  -18.5300    9.4700 C   0  0  0  0  0  0  0  0  0  0  0  0
   23.5000  -18.2050    9.3810 C   0  0  0  0  0  0  0  0  0  0  0  0
   25.2800  -19.2270    8.2730 C   0  0  0  0  0  0  0  0  0  0  0  0
   24.1720  -19.3630    7.4710 N   0  0  0  0  0  0  0  0  0  0  0  0
   26.5880  -19.6860    8.0170 C   0  0  0  0  0  0  0  0  0  0  0  0
   27.6050  -19.4420    8.9960 C   0  0  0  0  0  0  0  0  0  0  0  0
   27.2890  -18.7440   10.2060 C   0  0  0  0  0  0  0  0  0  0  0  0
   25.9570  -18.2800   10.4480 C   0  0  0  0  0  0  0  0  0  0  0  0
   23.0410  -18.7900    8.0310 C   0  0  0  0  0  0  0  0  0  0  0  0
   21.7990  -18.7310    7.4420 C   0  0  0  0  0  0  0  0  0  0  0  0
   21.5960  -19.5080    6.1300 C   0  0  0  0  0  0  0  0  0  0  0  0
   20.3100  -19.2070    5.7040 N   0  0  0  0  0  0  0  0  0  0  0  0
   19.6700  -18.3430    6.5890 C   0  0  0  0  0  0  0  0  0  0  0  0
   20.5160  -18.0130    7.6850 C   0  0  0  0  0  0  0  0  0  0  0  0
   18.3530  -17.8320    6.4380 C   0  0  0  0  0  0  0  0  0  0  0  0
   17.8580  -16.9500    7.4310 C   0  0  0  0  0  0  0  0  0  0  0  0
   18.6800  -16.6010    8.5480 C   0  0  0  0  0  0  0  0  0  0  0  0
   20.0110  -17.1310    8.6780 C   0  0  0  0  0  0  0  0  0  0  0  0
   22.3930  -20.2300    5.5500 O   0  0  0  0  0  0  0  0  0  0  0  0
   22.7230  -17.5670   10.2110 N   0  0  0  0  0  0  0  0  0  0  0  0
   23.3140  -17.0930   11.3920 O   0  0  0  0  0  0  0  0  0  0  0  0
  1  2  1  0
  1  3  2  0
  3  4  1  0
  3  5  1  0
  5  6  2  0
  6  7  1  0
  1  8  1  0
  7  8  2  0
  2  9  1  0
  4  9  1  0
  9 10  2  0
 10 11  1  0
 11 12  1  0
 12 13  1  0
 10 14  1  0
 13 14  2  0
 13 15  1  0
 15 16  2  0
 16 17  1  0
 14 18  1  0
 17 18  2  0
 11 19  2  0
  2 20  2  0
 20 21  1  0
M  END
$$$$
1Q41_IXM_A_451
     RDKit          3D

 21 24  0  0  0  0  0  0  0  0999 V2000
   40.3060    3.9180   35.3810 C   0  0  0  0  0  0  0  0  0  0  0  0
   39.6890    5.2740   35.2240 C   0  0  0  0  0  0  0  0  0  0  0  0
   40.8210    3.8770   36.6990 C   0  0  0  0  0  0  0  0  0  0  0  0
   40.5960    5.0550   37.3470 N   0  0  0  0  0  0  0  0  0  0  0  0
   41.4700    2.7350   37.2090 C   0  0  0  0  0  0  0  0  0  0  0  0
   41.6140    1.6060   36.3620 C   0  0  0  0  0  0  0  0  0  0  0  0
   41.1020    1.6400   35.0270 C   0  0  0  0  0  0  0  0  0  0  0  0
   40.4370    2.8060   34.5230 C   0  0  0  0  0  0  0  0  0  0  0  0
   39.9390    5.9730   36.5560 C   0  0  0  0  0  0  0  0  0  0  0  0
   39.5920    7.2340   36.9340 C   0  0  0  0  0  0  0  0  0  0  0  0
   40.1170    7.7360   38.2760 C   0  0  0  0  0  0  0  0  0  0  0  0
   39.5880    9.0090   38.4350 N   0  0  0  0  0  0  0  0  0  0  0  0
   38.7980    9.3720   37.3550 C   0  0  0  0  0  0  0  0  0  0  0  0
   38.7520    8.3330   36.3870 C   0  0  0  0  0  0  0  0  0  0  0  0
   38.1100   10.5980   37.2150 C   0  0  0  0  0  0  0  0  0  0  0  0
   37.3330   10.7920   36.0480 C   0  0  0  0  0  0  0  0  0  0  0  0
   37.2640    9.7690   35.0520 C   0  0  0  0  0  0  0  0  0  0  0  0
   37.9780    8.5360   35.2210 C   0  0  0  0  0  0  0  0  0  0  0  0
   40.8470    7.1490   39.0760 O   0  0  0  0  0  0  0  0  0  0  0  0
   39.0400    5.8050   34.2330 N   0  0  0  0  0  0  0  0  0  0  0  0
   38.8830    5.0110   33.0960 O   0  0  0  0  0  0  0  0  0  0  0  0
  1  2  1  0
  1  3  2  0
  3  4  1  0
  3  5  1  0
  5  6  2  0
  6  7  1  0
  1  8  1  0
  7  8  2  0
  2  9  1  0
  4  9  1  0
  9 10  2  0
 10 11  1  0
 11 12  1  0
 12 13  1  0
 10 14  1  0
 13 14  2  0
 13 15  1  0
 15 16  2  0
 16 17  1  0
 14 18  1  0
 17 18  2  0
 11 19  2  0
  2 20  2  0
 20 21  1  0
M  END
$$$$
