
     RDKit          3D

 57 60  0  0  0  0  0  0  0  0999 V2000
  -34.8973  -15.0751  -24.0738 C   0  0  0  0  0  0  0  0  0  0  0  0
  -35.5536  -15.0736  -25.4810 C   0  0  2  0  0  0  0  0  0  0  0  0
  -36.1673  -16.5002  -25.5718 C   0  0  0  0  0  0  0  0  0  0  0  0
  -36.9663  -16.7473  -26.8402 C   0  0  0  0  0  0  0  0  0  0  0  0
  -36.1090  -16.4431  -28.0518 C   0  0  0  0  0  0  0  0  0  0  0  0
  -35.5915  -15.0158  -27.9686 C   0  0  0  0  0  0  0  0  0  0  0  0
  -34.0311  -13.5763  -26.7231 C   0  0  0  0  0  0  0  0  0  0  0  0
  -33.2352  -13.2220  -28.0012 C   0  0  0  0  0  0  0  0  0  0  0  0
  -32.7617  -11.7639  -28.2557 C   0  0  1  0  0  0  0  0  0  0  0  0
  -33.2788  -10.6165  -27.3403 C   0  0  1  0  0  0  0  0  0  0  0  0
  -32.2492  -10.3183  -26.2406 C   0  0  0  0  0  0  0  0  0  0  0  0
  -30.8397  -10.0176  -26.7742 C   0  0  0  0  0  0  0  0  0  0  0  0
  -30.6098  -10.6553  -28.1668 C   0  0  1  0  0  0  0  0  0  0  0  0
  -29.1294  -10.8430  -28.6308 C   0  0  2  0  0  0  0  0  0  0  0  0
  -28.5706  -12.2885  -28.6008 C   0  0  0  0  0  0  0  0  0  0  0  0
  -28.7124  -13.1077  -27.3010 C   0  0  2  0  0  0  0  0  0  0  0  0
  -27.7867  -12.6541  -26.1459 C   0  0  0  0  0  0  0  0  0  0  0  0
  -26.4700  -13.3763  -25.9406 C   0  0  0  0  0  0  0  0  0  0  0  0
  -26.1608  -14.1324  -24.8656 C   0  0  0  0  0  0  0  0  0  0  0  0
  -26.9696  -14.4605  -23.6197 C   0  0  2  0  0  0  0  0  0  0  0  0
  -28.1598  -15.3793  -23.9701 C   0  0  0  0  0  0  0  0  0  0  0  0
  -29.5300  -15.0824  -23.3551 C   0  0  0  0  0  0  0  0  0  0  0  0
  -30.6299  -16.0214  -23.8613 C   0  0  1  0  0  0  0  0  0  0  0  0
  -31.8612  -16.2322  -22.9348 C   0  0  2  0  0  0  0  0  0  0  0  0
  -32.8912  -15.0618  -22.7565 C   0  0  1  0  0  0  0  0  0  0  0  0
  -32.5326  -13.6815  -22.1519 C   0  0  0  0  0  0  0  0  0  0  0  0
  -33.2082  -13.1022  -21.1354 C   0  0  0  0  0  0  0  0  0  0  0  0
  -33.0597  -11.7568  -20.4433 C   0  0  1  0  0  0  0  0  0  0  0  0
  -34.3029  -10.8606  -20.3314 C   0  0  0  0  0  0  0  0  0  0  0  0
  -33.9753   -9.4621  -19.7725 C   0  0  2  0  0  0  0  0  0  0  0  0
  -32.5883   -9.3980  -19.0919 C   0  0  2  0  0  0  0  0  0  0  0  0
  -32.3290  -10.6431  -18.2462 C   0  0  0  0  0  0  0  0  0  0  0  0
  -32.3561  -11.9251  -19.0795 C   0  0  0  0  0  0  0  0  0  0  0  0
  -33.6665   -9.3221  -28.0770 C   0  0  0  0  0  0  0  0  0  0  0  0
  -28.5921  -14.6007  -27.6395 C   0  0  0  0  0  0  0  0  0  0  0  0
  -25.4363  -13.1532  -27.0168 C   0  0  0  0  0  0  0  0  0  0  0  0
  -27.2852  -13.2457  -22.7128 C   0  0  0  0  0  0  0  0  0  0  0  0
  -26.1416  -12.3504  -22.2760 C   0  0  0  0  0  0  0  0  0  0  0  0
  -24.9349  -12.7125  -21.8237 C   0  0  0  0  0  0  0  0  0  0  0  0
  -31.4860  -16.9316  -21.6202 C   0  0  0  0  0  0  0  0  0  0  0  0
  -31.4744  -12.9205  -22.9169 C   0  0  0  0  0  0  0  0  0  0  0  0
  -29.5652   -9.5343  -24.8325 C   0  0  0  0  0  0  0  0  0  0  0  0
  -27.7617   -8.8836  -28.8947 C   0  0  0  0  0  0  0  0  0  0  0  0
  -36.0330   -9.9616  -18.6395 C   0  0  0  0  0  0  0  0  0  0  0  0
  -34.8205  -14.7531  -26.7360 N   0  0  0  0  0  0  0  0  0  0  0  0
  -33.5509  -14.9043  -24.0495 O   0  0  0  0  0  0  0  0  0  0  0  0
  -35.5778  -15.2691  -23.0663 O   0  0  0  0  0  0  0  0  0  0  0  0
  -33.9380  -12.8612  -25.7301 O   0  0  0  0  0  0  0  0  0  0  0  0
  -33.0005  -14.1002  -28.8441 O   0  0  0  0  0  0  0  0  0  0  0  0
  -31.3359  -11.8792  -28.2962 O   0  0  0  0  0  0  0  0  0  0  0  0
  -33.1589  -11.4933  -29.6096 O   0  0  0  0  0  0  0  0  0  0  0  0
  -29.9340  -10.5231  -25.7841 O   0  0  0  0  0  0  0  0  0  0  0  0
  -28.2750   -9.8725  -28.0125 O   0  0  0  0  0  0  0  0  0  0  0  0
  -27.9855  -16.3940  -24.6549 O   0  0  0  0  0  0  0  0  0  0  0  0
  -31.0642  -15.5641  -25.1410 O   0  0  0  0  0  0  0  0  0  0  0  0
  -34.9417   -9.0623  -18.7722 O   0  0  0  0  0  0  0  0  0  0  0  0
  -32.5068   -8.2402  -18.2581 O   0  0  0  0  0  0  0  0  0  0  0  0
  1  2  1  0
  2  3  1  6
  3  4  1  0
  4  5  1  0
  5  6  1  0
  7  8  1  0
  8  9  1  0
  9 10  1  0
 10 11  1  0
 11 12  1  0
 13 12  1  1
 13 14  1  0
 14 15  1  0
 15 16  1  0
 16 17  1  0
 17 18  1  0
 18 19  2  0
 19 20  1  0
 20 21  1  0
 21 22  1  0
 22 23  1  0
 23 24  1  0
 24 25  1  0
 25 26  1  6
 26 27  2  0
 28 27  1  1
 28 29  1  0
 29 30  1  0
 30 31  1  0
 31 32  1  0
 28 33  1  0
 32 33  1  0
 10 34  1  6
 16 35  1  6
 18 36  1  0
 20 37  1  6
 37 38  1  0
 38 39  2  0
 24 40  1  1
 26 41  1  0
  2 45  1  0
  6 45  1  0
  7 45  1  0
  1 46  1  0
 25 46  1  0
  1 47  2  0
  7 48  2  0
  8 49  2  0
  9 50  1  0
 13 50  1  0
  9 51  1  6
 12 52  1  0
 42 52  1  0
 14 53  1  1
 43 53  1  0
 21 54  2  0
 23 55  1  6
 30 56  1  1
 44 56  1  0
 31 57  1  1
M  END
