7RZL_NPO_A_301
     RDKit          3D

 10 10  0  0  0  0  0  0  0  0999 V2000
   19.1510   23.7305   66.4264 C   0  0  0  0  0  0  0  0  0  0  0  0
   18.6006   22.7376   67.2160 C   0  0  0  0  0  0  0  0  0  0  0  0
   17.2351   22.4743   67.2018 C   0  0  0  0  0  0  0  0  0  0  0  0
   16.4412   23.2393   66.3702 C   0  0  0  0  0  0  0  0  0  0  0  0
   16.9464   24.2407   65.5648 C   0  0  0  0  0  0  0  0  0  0  0  0
   18.3176   24.4838   65.5981 C   0  0  0  0  0  0  0  0  0  0  0  0
   15.0579   23.0228   66.3108 O   0  0  0  0  0  0  0  0  0  0  0  0
   20.5683   23.9740   66.4679 N   0  0  0  0  0  0  0  0  0  0  0  0
   21.1478   24.9408   65.6562 O   0  0  0  0  0  0  0  0  0  0  0  0
   21.2524   23.2856   67.2579 O   0  0  0  0  0  0  0  0  0  0  0  0
  1  2  2  0
  2  3  1  0
  3  4  2  0
  4  5  1  0
  1  6  1  0
  5  6  2  0
  4  7  1  0
  1  8  1  0
  8  9  1  0
  8 10  2  0
M  CHG  2   8   1   9  -1
M  END
$$$$
