8AEU_M0L_A_302
     RDKit          3D

 41 45  0  0  0  0  0  0  0  0999 V2000
   31.8475   13.0884   19.2325 O   0  0  0  0  0  0  0  0  0  0  0  0
   30.5948   14.3728   17.9172 N   0  0  0  0  0  0  0  0  0  0  0  0
   26.7918   11.6285   13.6871 O   0  0  0  0  0  0  0  0  0  0  0  0
   27.4297   12.6744   19.8433 N   0  0  0  0  0  0  0  0  0  0  0  0
   29.6276   12.8773   19.4220 N   0  0  0  0  0  0  0  0  0  0  0  0
   26.7903   11.9972   24.5806 C   0  0  0  0  0  0  0  0  0  0  0  0
   26.4235   10.6919   24.3800 C   0  0  0  0  0  0  0  0  0  0  0  0
   29.9566   10.8494   22.5915 C   0  0  0  0  0  0  0  0  0  0  0  0
   30.3092    9.5721   22.9749 C   0  0  0  0  0  0  0  0  0  0  0  0
   30.4798   10.3291   20.3353 C   0  0  0  0  0  0  0  0  0  0  0  0
   30.1316   11.5693   17.1130 O   0  0  0  0  0  0  0  0  0  0  0  0
   30.8420    9.0483   20.7093 C   0  0  0  0  0  0  0  0  0  0  0  0
   26.5372   10.1031   23.1470 C   0  0  0  0  0  0  0  0  0  0  0  0
   27.0631   10.8349   22.0993 C   0  0  0  0  0  0  0  0  0  0  0  0
   30.0256   11.2458   21.2682 C   0  0  0  0  0  0  0  0  0  0  0  0
   30.7437    8.6866   22.0266 C   0  0  0  0  0  0  0  0  0  0  0  0
   32.2556   10.7603   16.7358 C   0  0  0  0  0  0  0  0  0  0  0  0
   26.4021   12.6425   15.7670 C   0  0  0  0  0  0  0  0  0  0  0  0
   29.5900   12.6387   20.8703 C   0  0  2  0  0  0  0  0  0  0  0  0
   27.3160   12.7175   23.5271 C   0  0  0  0  0  0  0  0  0  0  0  0
   26.8019   12.9275   17.0546 C   0  0  0  0  0  0  0  0  0  0  0  0
   28.6667   15.3377   18.7886 C   0  0  0  0  0  0  0  0  0  0  0  0
   29.4769   15.1048   17.7774 C   0  0  0  0  0  0  0  0  0  0  0  0
   25.8916    9.7408   25.7278 Cl  0  0  0  0  0  0  0  0  0  0  0  0
   30.7525   13.4263   18.8716 C   0  0  0  0  0  0  0  0  0  0  0  0
   30.3948    9.5383   15.6929 C   0  0  0  0  0  0  0  0  0  0  0  0
   31.1508    7.0715   22.4987 Cl  0  0  0  0  0  0  0  0  0  0  0  0
   27.4705   12.1459   22.2748 C   0  0  0  0  0  0  0  0  0  0  0  0
   28.0852   12.9294   21.1376 C   0  0  2  0  0  0  0  0  0  0  0  0
   28.3477   12.6756   18.9551 C   0  0  0  0  0  0  0  0  0  0  0  0
   27.2300   11.9152   14.9410 C   0  0  0  0  0  0  0  0  0  0  0  0
   28.4689   11.4892   15.3802 C   0  0  0  0  0  0  0  0  0  0  0  0
   28.8660   11.7931   16.6613 C   0  0  0  0  0  0  0  0  0  0  0  0
   28.0280   12.4877   17.5318 C   0  0  0  0  0  0  0  0  0  0  0  0
   30.8404   10.3469   16.8404 C   0  0  2  0  0  0  0  0  0  0  0  0
   25.7524   12.4384   13.1744 C   0  0  0  0  0  0  0  0  0  0  0  0
   31.7201   14.6909   17.0313 C   0  0  0  0  0  0  0  0  0  0  0  0
   31.2164   14.7417   15.6281 C   0  0  0  0  0  0  0  0  0  0  0  0
   30.0671   15.5871   15.5739 N   0  0  0  0  0  0  0  0  0  0  0  0
   29.1495   15.6785   16.5228 C   0  0  0  0  0  0  0  0  0  0  0  0
   28.0960   16.2424   16.3031 O   0  0  0  0  0  0  0  0  0  0  0  0
  6  7  2  0
  8  9  2  0
 10 12  1  0
  7 13  1  0
 13 14  2  0
 10 15  2  0
  8 15  1  0
 12 16  2  0
  9 16  1  0
  5 19  1  0
 19 15  1  6
  6 20  1  0
 18 21  2  0
  2 23  1  0
 22 23  2  0
  7 24  1  0
  2 25  1  0
  1 25  2  0
  5 25  1  0
 16 27  1  0
 14 28  1  0
 20 28  2  0
  4 29  1  0
 19 29  1  0
 29 28  1  1
  5 30  1  0
  4 30  2  0
  3 31  1  0
 18 31  1  0
 31 32  2  0
 32 33  1  0
 11 33  1  0
 33 34  2  0
 21 34  1  0
 30 34  1  0
 35 26  1  6
 11 35  1  0
 17 35  1  0
  3 36  1  0
  2 37  1  0
 37 38  1  0
 38 39  1  0
 39 40  1  0
 23 40  1  0
 40 41  2  0
M  END
