7V14_ORU_A_702
     RDKit          3D

 35 40  0  0  0  0  0  0  0  0999 V2000
   33.8501    6.0383   -8.4159 C   0  0  0  0  0  0  0  0  0  0  0  0
   34.1362    7.3884   -8.3756 C   0  0  0  0  0  0  0  0  0  0  0  0
   33.9585    8.0916   -7.1911 C   0  0  0  0  0  0  0  0  0  0  0  0
   33.5050    7.5088   -6.0321 C   0  0  0  0  0  0  0  0  0  0  0  0
   33.3011    8.1876   -4.7513 C   0  0  1  0  0  0  0  0  0  0  0  0
   35.5225    8.9059   -3.7299 C   0  0  1  0  0  0  0  0  0  0  0  0
   29.7292    8.6246   -4.3878 C   0  0  0  0  0  0  0  0  0  0  0  0
   25.9269    7.0934   -4.1169 C   0  0  0  0  0  0  0  0  0  0  0  0
   32.9804    5.0528  -10.5286 C   0  0  0  0  0  0  0  0  0  0  0  0
   33.2371    4.2702  -11.6372 C   0  0  0  0  0  0  0  0  0  0  0  0
   34.4749    3.6836  -11.8405 C   0  0  0  0  0  0  0  0  0  0  0  0
   36.8089    9.4778   -4.2888 C   0  0  0  0  0  0  0  0  0  0  0  0
   36.2598   10.0485   -3.0470 C   0  0  0  0  0  0  0  0  0  0  0  0
   30.8148    7.8172   -4.5009 C   0  0  0  0  0  0  0  0  0  0  0  0
   30.1877    9.9243   -4.4293 C   0  0  0  0  0  0  0  0  0  0  0  0
   28.3742    8.2326   -4.2520 C   0  0  0  0  0  0  0  0  0  0  0  0
   27.2320    8.9661   -3.8656 C   0  0  0  0  0  0  0  0  0  0  0  0
   34.0110    5.2307   -9.6225 C   0  0  0  0  0  0  0  0  0  0  0  0
   35.4867    3.8665  -10.9375 C   0  0  0  0  0  0  0  0  0  0  0  0
   33.3951    5.4711   -7.2405 C   0  0  0  0  0  0  0  0  0  0  0  0
   35.2569    4.6437   -9.8215 C   0  0  0  0  0  0  0  0  0  0  0  0
   37.1828    3.8818   -8.4492 C   0  0  0  0  0  0  0  0  0  0  0  0
   34.2525    9.2628   -4.4057 C   0  0  0  0  0  0  0  0  0  0  0  0
   31.7795    5.6410  -10.3007 F   0  0  0  0  0  0  0  0  0  0  0  0
   31.8933    8.6142   -4.6071 N   0  0  0  0  0  0  0  0  0  0  0  0
   31.5267    9.8842   -4.5651 N   0  0  0  0  0  0  0  0  0  0  0  0
   33.2342    6.1805   -6.1105 N   0  0  0  0  0  0  0  0  0  0  0  0
   26.1041    8.3735   -3.8206 N   0  0  0  0  0  0  0  0  0  0  0  0
   36.3285    4.8243   -8.8863 N   0  0  0  0  0  0  0  0  0  0  0  0
   38.0096    4.4848   -7.5960 N   0  0  0  0  0  0  0  0  0  0  0  0
   37.6522    5.7560   -7.5300 N   0  0  0  0  0  0  0  0  0  0  0  0
   36.6177    5.9831   -8.3188 N   0  0  0  0  0  0  0  0  0  0  0  0
   32.7735    5.4954   -5.0070 O   0  0  0  0  0  0  0  0  0  0  0  0
   27.6873    6.5678   -4.5577 S   0  0  0  0  0  0  0  0  0  0  0  0
   31.9733    4.0064  -12.8221 Cl  0  0  0  0  0  0  0  0  0  0  0  0
  1  2  2  0
  2  3  1  0
  3  4  2  0
  4  5  1  0
  9 10  2  0
 10 11  1  0
  6 12  1  0
  6 13  1  0
 12 13  1  0
  7 14  2  0
  7 15  1  0
  7 16  1  0
 16 17  2  0
  1 18  1  0
  9 18  1  0
 11 19  2  0
  1 20  1  0
 18 21  2  0
 19 21  1  0
  6 23  1  6
  5 23  1  6
  9 24  1  0
  5 25  1  0
 14 25  1  0
 25 26  1  0
 15 26  2  0
  4 27  1  0
 20 27  2  0
 17 28  1  0
  8 28  2  0
 22 29  1  0
 21 29  1  0
 22 30  2  0
 30 31  1  0
 29 32  1  0
 31 32  2  0
 27 33  1  0
 16 34  1  0
  8 34  1  0
 10 35  1  0
M  CHG  2  27   1  33  -1
M  END
$$$$
