7B94_ANP_A_401
     RDKit          3D

 48 50  0  0  0  0  0  0  0  0999 V2000
  -25.3630   -5.0888   12.5383 P   0  0  2  0  0  5  0  0  0  0  0  0
  -24.2911   -5.6719   13.3311 O   0  0  0  0  0  0  0  0  0  0  0  0
  -25.4818   -5.9455   11.2272 O   0  0  0  0  0  0  0  0  0  0  0  0
  -24.9290   -3.6115   12.1834 O   0  0  0  0  0  0  0  0  0  0  0  0
  -27.3736   -5.7869   14.6699 P   0  0  1  0  0  5  0  0  0  0  0  0
  -28.4526   -6.7263   14.4228 O   0  0  0  0  0  0  0  0  0  0  0  0
  -26.2345   -6.4885   15.5077 O   0  0  0  0  0  0  0  0  0  0  0  0
  -26.8706   -5.0839   13.2588 N   0  0  0  0  0  0  0  0  0  0  0  0
  -29.2901   -3.8753   15.6102 P   0  0  2  0  0  5  0  0  0  0  0  0
  -30.1435   -4.4144   16.6820 O   0  0  0  0  0  0  0  0  0  0  0  0
  -29.8634   -4.0040   14.1980 O   0  0  0  0  0  0  0  0  0  0  0  0
  -27.8764   -4.6097   15.6089 O   0  0  0  0  0  0  0  0  0  0  0  0
  -28.9839   -2.3717   15.8869 O   0  0  0  0  0  0  0  0  0  0  0  0
  -29.0732   -1.8128   17.2087 C   0  0  0  0  0  0  0  0  0  0  0  0
  -30.5046   -1.4012   17.3928 C   0  0  1  0  0  0  0  0  0  0  0  0
  -31.3709   -2.4810   16.9901 O   0  0  0  0  0  0  0  0  0  0  0  0
  -30.8967   -1.1491   18.8407 C   0  0  1  0  0  0  0  0  0  0  0  0
  -30.4780    0.1454   19.2514 O   0  0  0  0  0  0  0  0  0  0  0  0
  -32.4139   -1.3123   18.7915 C   0  0  1  0  0  0  0  0  0  0  0  0
  -33.0210   -0.1051   18.3643 O   0  0  0  0  0  0  0  0  0  0  0  0
  -32.5928   -2.3775   17.7013 C   0  0  2  0  0  0  0  0  0  0  0  0
  -32.9708   -3.6921   18.2055 N   0  0  0  0  0  4  0  0  0  0  0  0
  -32.6970   -4.9161   17.6545 C   0  0  0  0  0  0  0  0  0  0  0  0
  -33.1529   -5.9295   18.3513 N   0  0  0  0  0  0  0  0  0  0  0  0
  -33.7724   -5.3279   19.4386 C   0  0  0  0  0  0  0  0  0  0  0  0
  -34.4527   -5.8557   20.5581 C   0  0  0  0  0  0  0  0  0  0  0  0
  -34.5601   -7.1599   20.8042 N   0  0  0  0  0  0  0  0  0  0  0  0
  -34.9693   -4.9830   21.4565 N   0  0  0  0  0  0  0  0  0  0  0  0
  -34.7856   -3.6688   21.2599 C   0  0  0  0  0  0  0  0  0  0  0  0
  -34.1569   -3.0550   20.2462 N   0  0  0  0  0  0  0  0  0  0  0  0
  -33.6711   -3.9501   19.3613 C   0  0  0  0  0  0  0  0  0  0  0  0
  -24.6219   -5.9716   10.7791 H   0  0  0  0  0  0  0  0  0  0  0  0
  -24.0536   -3.6232   11.7659 H   0  0  0  0  0  0  0  0  0  0  0  0
  -25.8686   -7.2293   14.9992 H   0  0  0  0  0  0  0  0  0  0  0  0
  -27.4876   -5.4790   12.5492 H   0  0  0  0  0  0  0  0  0  0  0  0
  -30.0590   -4.9357   14.0120 H   0  0  0  0  0  0  0  0  0  0  0  0
  -28.4286   -0.9632   17.2967 H   0  0  0  0  0  0  0  0  0  0  0  0
  -28.7719   -2.5204   17.9526 H   0  0  0  0  0  0  0  0  0  0  0  0
  -30.6041   -0.5045   16.8177 H   0  0  0  0  0  0  0  0  0  0  0  0
  -30.4433   -1.8047   19.5545 H   0  0  0  0  0  0  0  0  0  0  0  0
  -30.8486    0.8108   18.6507 H   0  0  0  0  0  0  0  0  0  0  0  0
  -32.8467   -1.5675   19.7362 H   0  0  0  0  0  0  0  0  0  0  0  0
  -32.6508    0.1572   17.5069 H   0  0  0  0  0  0  0  0  0  0  0  0
  -33.4025   -2.0616   17.0771 H   0  0  0  0  0  0  0  0  0  0  0  0
  -32.1781   -5.0308   16.7699 H   0  0  0  0  0  0  0  0  0  0  0  0
  -34.1924   -7.8132   20.1661 H   0  0  0  0  0  0  0  0  0  0  0  0
  -35.0071   -7.4709   21.6244 H   0  0  0  0  0  0  0  0  0  0  0  0
  -35.1800   -3.0480   21.9838 H   0  0  0  0  0  0  0  0  0  0  0  0
  1  2  2  0
  1  3  1  6
  1  4  1  0
  5  6  2  0
  5  7  1  1
  1  8  1  0
  5  8  1  0
  9 10  2  0
  9 11  1  6
  5 12  1  0
  9 12  1  0
  9 13  1  0
 13 14  1  0
 15 14  1  0
 15 16  1  0
 15 17  1  0
 17 18  1  0
 17 19  1  0
 19 20  1  0
 16 21  1  0
 19 21  1  0
 21 22  1  0
 22 23  4  0
 23 24  4  0
 24 25  4  0
 25 26  4  0
 26 27  1  0
 26 28  4  0
 28 29  4  0
 29 30  4  0
 22 31  4  0
 25 31  4  0
 30 31  4  0
  3 32  1  0
  4 33  1  0
  7 34  1  0
  8 35  1  0
 11 36  1  0
 14 37  1  0
 14 38  1  0
 15 39  1  6
 17 40  1  1
 18 41  1  0
 19 42  1  1
 20 43  1  0
 21 44  1  6
 23 45  1  0
 27 46  1  0
 27 47  1  0
 29 48  1  0
M  CHG  1  22   1
M  END
