7M3H_YPV_B_501
     RDKit          3D

 24 25  0  0  0  0  0  0  0  0999 V2000
    0.8346    0.8562   -2.6792 C   0  0  0  0  0  0  0  0  0  0  0  0
   -0.4097    0.5641   -2.1617 C   0  0  0  0  0  0  0  0  0  0  0  0
   -1.2653   -0.3508   -2.7508 C   0  0  0  0  0  0  0  0  0  0  0  0
    2.8595   -0.8999    0.3148 C   0  0  0  0  0  0  0  0  0  0  0  0
    2.6042   -2.8789    1.7252 C   0  0  0  0  0  0  0  0  0  0  0  0
    2.4817   -1.4409    1.5382 C   0  0  0  0  0  0  0  0  0  0  0  0
    1.9977   -0.6343    2.5632 C   0  0  0  0  0  0  0  0  0  0  0  0
    1.8802    0.7197    2.3931 C   0  0  0  0  0  0  0  0  0  0  0  0
    2.2540    1.2725    1.1762 C   0  0  0  0  0  0  0  0  0  0  0  0
    2.7405    0.4713    0.1427 C   0  0  0  0  0  0  0  0  0  0  0  0
   -0.8938   -1.0167   -3.9019 C   0  0  0  0  0  0  0  0  0  0  0  0
   -1.8404   -1.9817   -4.4912 C   0  0  0  0  0  0  0  0  0  0  0  0
   -1.2823   -3.3726   -4.2862 C   0  0  0  0  0  0  0  0  0  0  0  0
   -2.1258   -4.4182   -4.9930 C   0  0  0  0  0  0  0  0  0  0  0  0
   -1.5594   -5.8046   -4.7980 C   0  0  0  0  0  0  0  0  0  0  0  0
    0.3515   -0.7356   -4.4348 C   0  0  0  0  0  0  0  0  0  0  0  0
    1.1985    0.1854   -3.8314 C   0  0  0  0  0  0  0  0  0  0  0  0
    1.7290    1.7914   -2.0921 N   0  0  0  0  0  0  0  0  0  0  0  0
    3.0186   -3.6711    0.6556 O   0  0  0  0  0  0  0  0  0  0  0  0
    1.6224   -1.1911    3.7857 O   0  0  0  0  0  0  0  0  0  0  0  0
    3.9630    0.3549   -2.2494 O   0  0  0  0  0  0  0  0  0  0  0  0
    4.0589    2.4327   -1.0279 O   0  0  0  0  0  0  0  0  0  0  0  0
    2.3543   -3.4623    2.8133 O   0  0  0  0  0  0  0  0  0  0  0  0
    3.1849    1.2595   -1.3514 S   0  0  2  0  0  6  0  0  0  0  0  0
  1  2  2  0
  2  3  1  0
  4  6  2  0
  5  6  1  0
  6  7  1  0
  7  8  2  0
  8  9  1  0
  4 10  1  0
  9 10  2  0
  3 11  2  0
 12 11  1  1
 13 12  1  1
 13 14  1  0
 14 15  1  6
 11 16  1  0
 16 17  2  0
  1 17  1  0
  1 18  1  0
  5 19  1  0
  7 20  1  0
  5 23  2  0
 21 24  2  0
 22 24  2  0
 24 18  1  6
 10 24  1  0
M  END
$$$$
