
     RDKit          3D

 20 22  0  0  0  0  0  0  0  0999 V2000
   -2.6799   44.7876   20.8455 C   0  0  0  0  0  0  0  0  0  0  0  0
   -2.8706   46.0408   20.1266 N   0  0  0  0  0  0  0  0  0  0  0  0
   -4.2472   46.5247   20.2798 C   0  0  0  0  0  0  0  0  0  0  0  0
   -4.8438   46.8154   18.9020 C   0  0  0  0  0  0  0  0  0  0  0  0
   -5.5670   48.1706   18.8558 C   0  0  0  0  0  0  0  0  0  0  0  0
   -6.0649   48.5421   17.5091 N   0  0  0  0  0  0  0  0  0  0  0  0
   -7.2389   49.3476   17.4496 C   0  0  0  0  0  0  0  0  0  0  0  0
   -7.6043   50.1621   18.5487 C   0  0  0  0  0  0  0  0  0  0  0  0
   -8.7355   50.9833   18.5379 C   0  0  0  0  0  0  0  0  0  0  0  0
   -9.5402   51.0289   17.4140 C   0  0  0  0  0  0  0  0  0  0  0  0
   -9.2047   50.2563   16.3080 C   0  0  0  0  0  0  0  0  0  0  0  0
   -8.0683   49.4098   16.3037 C   0  0  0  0  0  0  0  0  0  0  0  0
   -7.8556   48.6497   15.0077 C   0  0  0  0  0  0  0  0  0  0  0  0
   -6.8616   47.4958   14.9940 C   0  0  0  0  0  0  0  0  0  0  0  0
   -5.4609   47.9984   15.2083 C   0  0  0  0  0  0  0  0  0  0  0  0
   -5.1082   48.5256   16.4626 C   0  0  0  0  0  0  0  0  0  0  0  0
   -4.5213   47.9513   14.1660 C   0  0  0  0  0  0  0  0  0  0  0  0
   -3.2302   48.4360   14.3586 C   0  0  0  0  0  0  0  0  0  0  0  0
   -2.8728   48.9763   15.5887 C   0  0  0  0  0  0  0  0  0  0  0  0
   -3.8046   49.0224   16.6289 C   0  0  0  0  0  0  0  0  0  0  0  0
  1  2  1  0
  2  3  1  0
  3  4  1  0
  4  5  1  0
  5  6  1  0
  6  7  1  0
  7  8  4  0
  8  9  4  0
  9 10  4  0
 10 11  4  0
  7 12  4  0
 11 12  4  0
 12 13  1  0
 13 14  1  0
 14 15  1  0
  6 16  1  0
 15 16  4  0
 15 17  4  0
 17 18  4  0
 18 19  4  0
 16 20  4  0
 19 20  4  0
M  END
