6YQV_8K2_H_308
     RDKit          3D

 14 14  0  0  0  0  0  0  0  0999 V2000
   14.0892  -10.3819   20.3302 C   0  0  0  0  0  0  0  0  0  0  0  0
   15.9165   -8.3759   20.7614 Cl  0  0  0  0  0  0  0  0  0  0  0  0
   14.5242   -9.3236   21.0549 C   0  0  0  0  0  0  0  0  0  0  0  0
   12.9173  -10.9355   20.8750 C   0  0  0  0  0  0  0  0  0  0  0  0
   13.5259   -8.9594   22.4010 S   0  0  0  0  0  0  0  0  0  0  0  0
   12.5024  -10.2836   21.9941 C   0  0  0  0  0  0  0  0  0  0  0  0
   11.1330  -10.7427   22.9977 S   0  0  1  0  0  6  0  0  0  0  0  0
   11.6168  -10.7284   24.3444 O   0  0  0  0  0  0  0  0  0  0  0  0
   10.0466   -9.9090   22.6114 O   0  0  0  0  0  0  0  0  0  0  0  0
   10.7670  -12.2412   22.6166 N   0  0  0  0  0  0  0  0  0  0  0  0
   14.5595  -10.7376   19.4833 H   0  0  0  0  0  0  0  0  0  0  0  0
   12.4258  -11.7476   20.4701 H   0  0  0  0  0  0  0  0  0  0  0  0
   11.5343  -12.8574   22.8856 H   0  0  0  0  0  0  0  0  0  0  0  0
    9.9184  -12.5198   23.1093 H   0  0  0  0  0  0  0  0  0  0  0  0
  1  3  4  0
  2  3  1  0
  1  4  4  0
  3  5  4  0
  4  6  4  0
  5  6  4  0
  6  7  1  0
  7  8  2  0
  7  9  2  0
  7 10  1  1
  1 11  1  0
  4 12  1  0
 10 13  1  0
 10 14  1  0
M  END
