7Z7F_IF3_A_606
     RDKit          3D

 26 27  0  0  0  0  0  0  0  0999 V2000
   17.8657   24.6574    3.6087 C   0  0  0  0  0  0  0  0  0  0  0  0
   13.3390   30.0725    3.7879 C   0  0  0  0  0  0  0  0  0  0  0  0
   15.5378   28.8786    3.3661 C   0  0  0  0  0  0  0  0  0  0  0  0
   15.6999   28.9127    1.9397 C   0  0  0  0  0  0  0  0  0  0  0  0
   16.4377   27.9092    1.3552 C   0  0  0  0  0  0  0  0  0  0  0  0
   16.7936   26.9329    3.4486 C   0  0  0  0  0  0  0  0  0  0  0  0
   15.7513   29.2559   -0.2314 C   0  0  0  0  0  0  0  0  0  0  0  0
   17.1143   27.2689   -0.9570 C   0  0  0  0  0  0  0  0  0  0  0  0
   14.7656   29.8979    4.0522 N   0  0  0  0  0  0  0  0  0  0  0  0
   16.9678   26.9340    2.1319 N   0  0  0  0  0  0  0  0  0  0  0  0
   16.0989   27.8973    4.0574 N   0  0  0  0  0  0  0  0  0  0  0  0
   17.3582   25.8637    4.2489 N   0  0  0  0  0  0  0  0  0  0  0  0
   16.4486   28.1323    0.0179 N   0  0  0  0  0  4  0  0  0  0  0  0
   15.2827   29.7460    0.9325 N   0  0  0  0  0  0  0  0  0  0  0  0
   18.2396   23.9882    4.3549 H   0  0  0  0  0  0  0  0  0  0  0  0
   17.0752   24.1817    3.0668 H   0  0  0  0  0  0  0  0  0  0  0  0
   18.6550   24.9164    2.9341 H   0  0  0  0  0  0  0  0  0  0  0  0
   12.9592   30.8705    4.3912 H   0  0  0  0  0  0  0  0  0  0  0  0
   13.1940   30.3071    2.7540 H   0  0  0  0  0  0  0  0  0  0  0  0
   12.8191   29.1679    4.0248 H   0  0  0  0  0  0  0  0  0  0  0  0
   15.6003   29.6739   -1.1627 H   0  0  0  0  0  0  0  0  0  0  0  0
   16.9729   27.6659   -1.9404 H   0  0  0  0  0  0  0  0  0  0  0  0
   18.1606   27.2238   -0.7377 H   0  0  0  0  0  0  0  0  0  0  0  0
   16.6964   26.2852   -0.9062 H   0  0  0  0  0  0  0  0  0  0  0  0
   15.2107   30.4822    4.7074 H   0  0  0  0  0  0  0  0  0  0  0  0
   17.3986   25.9534    5.2285 H   0  0  0  0  0  0  0  0  0  0  0  0
  3  4  4  0
  4  5  4  0
  2  9  1  0
  3  9  1  0
  5 10  4  0
  6 10  4  0
  3 11  4  0
  6 11  4  0
  6 12  1  0
  1 12  1  0
  7 13  4  0
  5 13  4  0
  8 13  1  0
  7 14  4  0
  4 14  4  0
  1 15  1  0
  1 16  1  0
  1 17  1  0
  2 18  1  0
  2 19  1  0
  2 20  1  0
  7 21  1  0
  8 22  1  0
  8 23  1  0
  8 24  1  0
  9 25  1  0
 12 26  1  0
M  CHG  1  13   1
M  END
