7SCW_GSP_A_202
     RDKit          3D

 32 34  0  0  0  0  0  0  0  0999 V2000
   23.1631   17.7665   -6.8523 P   0  0  1  0  0  5  0  0  0  0  0  0
   24.7961   17.6535   -6.4887 O   0  0  0  0  0  0  0  0  0  0  0  0
   22.4493   19.0995   -5.9875 S   0  0  0  0  0  0  0  0  0  0  0  0
   22.9777   17.9933   -8.5136 O   0  0  0  0  0  0  0  0  0  0  0  0
   22.3158   16.3562   -6.4073 O   0  0  0  0  0  0  0  0  0  0  0  0
   25.6501   18.9930   -7.0412 P   0  0  1  0  0  5  0  0  0  0  0  0
   27.1059   18.6568   -7.0962 O   0  0  0  0  0  0  0  0  0  0  0  0
   25.1011   19.4899   -8.5647 O   0  0  0  0  0  0  0  0  0  0  0  0
   26.4024   21.5661   -6.4591 P   0  0  1  0  0  5  0  0  0  0  0  0
   27.1894   21.0755   -7.6658 O   0  0  0  0  0  0  0  0  0  0  0  0
   25.4969   22.8891   -6.9437 O   0  0  0  0  0  0  0  0  0  0  0  0
   25.4348   20.2690   -5.9670 O   0  0  0  0  0  0  0  0  0  0  0  0
   27.4478   21.9264   -5.2113 O   0  0  0  0  0  0  0  0  0  0  0  0
   26.9206   22.7869   -4.2499 C   0  0  0  0  0  0  0  0  0  0  0  0
   28.0397   23.6809   -3.8062 C   0  0  1  0  0  0  0  0  0  0  0  0
   29.2433   23.0054   -3.6533 O   0  0  0  0  0  0  0  0  0  0  0  0
   28.4300   24.6908   -4.8657 C   0  0  1  0  0  0  0  0  0  0  0  0
   27.4621   25.6805   -4.9983 O   0  0  0  0  0  0  0  0  0  0  0  0
   29.6945   25.2198   -4.2178 C   0  0  1  0  0  0  0  0  0  0  0  0
   29.3105   26.1067   -3.2377 O   0  0  0  0  0  0  0  0  0  0  0  0
   30.2089   23.9678   -3.5252 C   0  0  2  0  0  0  0  0  0  0  0  0
   31.4742   23.6222   -4.1022 N   0  0  0  0  0  0  0  0  0  0  0  0
   31.6618   22.7601   -5.0916 C   0  0  0  0  0  0  0  0  0  0  0  0
   32.9665   22.6588   -5.4022 N   0  0  0  0  0  0  0  0  0  0  0  0
   33.6158   23.4944   -4.5691 C   0  0  0  0  0  0  0  0  0  0  0  0
   34.9730   23.7597   -4.4790 C   0  0  0  0  0  0  0  0  0  0  0  0
   35.8351   23.2279   -5.2025 O   0  0  0  0  0  0  0  0  0  0  0  0
   35.3551   24.6438   -3.5513 N   0  0  0  0  0  0  0  0  0  0  0  0
   34.4462   25.2365   -2.7529 C   0  0  0  0  0  0  0  0  0  0  0  0
   34.8506   26.1869   -1.7548 N   0  0  0  0  0  0  0  0  0  0  0  0
   33.1227   24.9838   -2.8341 N   0  0  0  0  0  0  0  0  0  0  0  0
   32.6884   24.1042   -3.7488 C   0  0  0  0  0  0  0  0  0  0  0  0
  1  2  1  0
  1  3  2  0
  1  4  1  6
  1  5  1  0
  6  2  1  0
  6  7  2  0
  6  8  1  6
  9 10  2  0
  9 11  1  6
  6 12  1  0
  9 12  1  0
  9 13  1  0
 14 13  1  1
 15 14  1  0
 15 16  1  6
 15 17  1  0
 17 18  1  1
 17 19  1  0
 19 20  1  1
 16 21  1  0
 19 21  1  0
 21 22  1  6
 22 23  1  0
 23 24  2  0
 24 25  1  0
 25 26  1  0
 26 27  2  0
 26 28  1  0
 28 29  1  0
 29 30  1  0
 29 31  2  0
 22 32  1  0
 25 32  2  0
 31 32  1  0
M  END
$$$$
