7TOM_5AD_A_605
     RDKit          3D

 18 20  0  0  0  0  0  0  0  0999 V2000
   16.8333   43.0352   43.6059 N   0  0  0  0  0  0  0  0  0  0  0  0
   16.3769   42.8354   42.3458 C   0  0  0  0  0  0  0  0  0  0  0  0
   15.8056   43.8591   41.6677 N   0  0  0  0  0  0  0  0  0  0  0  0
   15.7009   45.0453   42.2484 C   0  0  0  0  0  0  0  0  0  0  0  0
   15.1812   46.2027   41.7913 N   0  0  0  0  0  0  0  0  0  0  0  0
   15.3286   47.1142   42.7964 C   0  0  0  0  0  0  0  0  0  0  0  0
   15.9261   46.5139   43.8376 N   0  0  0  0  0  0  0  0  0  0  0  0
   16.1573   45.2520   43.5135 C   0  0  0  0  0  0  0  0  0  0  0  0
   16.7439   44.2257   44.2272 C   0  0  0  0  0  0  0  0  0  0  0  0
   17.2340   44.4210   45.5668 N   0  0  0  0  0  0  0  0  0  0  0  0
   14.5791   46.5210   40.5396 C   0  0  1  0  0  0  0  0  0  0  0  0
   13.1115   46.8752   40.6381 C   0  0  1  0  0  0  0  0  0  0  0  0
   12.9025   47.4294   39.2224 C   0  0  1  0  0  0  0  0  0  0  0  0
   14.2582   48.0187   38.9365 C   0  0  1  0  0  0  0  0  0  0  0  0
   14.2125   49.5238   38.7809 C   0  0  0  0  0  0  0  0  0  0  0  0
   15.0978   47.6855   39.9859 O   0  0  0  0  0  0  0  0  0  0  0  0
   12.3158   45.7875   40.9021 O   0  0  0  0  0  0  0  0  0  0  0  0
   12.7053   46.3246   38.3941 O   0  0  0  0  0  0  0  0  0  0  0  0
  1  2  2  0
  2  3  1  0
  3  4  2  0
  4  5  1  0
  5  6  1  0
  6  7  2  0
  4  8  1  0
  7  8  1  0
  1  9  1  0
  8  9  2  0
  9 10  1  0
 11  5  1  1
 11 12  1  0
 12 13  1  0
 13 14  1  0
 15 14  1  1
 11 16  1  0
 14 16  1  1
 12 17  1  6
 13 18  1  6
M  END
$$$$
