7N6F_0I1_A_502
     RDKit          3D

 46 49  0  0  0  0  0  0  0  0999 V2000
  -17.1840   -6.2151   25.6642 C   0  0  0  0  0  0  0  0  0  0  0  0
  -15.4054   -7.8868   24.7344 C   0  0  0  0  0  0  0  0  0  0  0  0
  -14.1989   -6.9770   24.7372 C   0  0  2  0  0  0  0  0  0  0  0  0
  -12.2435   -6.1622   23.3145 C   0  0  0  0  0  0  0  0  0  0  0  0
  -14.6213   -5.5123   24.8602 C   0  0  0  0  0  0  0  0  0  0  0  0
  -12.3596   -2.5538   22.5172 C   0  0  0  0  0  0  0  0  0  0  0  0
  -10.2487   -1.7133   22.1955 C   0  0  0  0  0  0  0  0  0  0  0  0
   -9.7680   -4.8725   24.0802 C   0  0  0  0  0  0  0  0  0  0  0  0
   -9.6636   -4.7312   25.4541 C   0  0  0  0  0  0  0  0  0  0  0  0
   -9.0098   -5.7448   26.2106 C   0  0  0  0  0  0  0  0  0  0  0  0
   -9.2887   -6.0335   23.4410 C   0  0  0  0  0  0  0  0  0  0  0  0
  -18.0405   -4.7878   23.9513 F   0  0  0  0  0  0  0  0  0  0  0  0
  -18.2235   -6.0268   24.4803 C   0  0  1  0  0  0  0  0  0  0  0  0
  -17.5558   -7.1525   23.6987 C   0  0  0  0  0  0  0  0  0  0  0  0
  -16.5702   -7.2618   24.7704 N   0  0  0  0  0  0  0  0  0  0  0  0
  -15.3214   -9.1134   24.8117 O   0  0  0  0  0  0  0  0  0  0  0  0
  -13.4273   -7.1397   23.4157 C   0  0  0  0  0  0  0  0  0  0  0  0
  -12.7034   -4.7903   23.4750 N   0  0  0  0  0  0  0  0  0  0  0  0
  -13.4139   -4.5680   24.7482 C   0  0  0  0  0  0  0  0  0  0  0  0
  -11.8495   -3.7236   23.1018 C   0  0  0  0  0  0  0  0  0  0  0  0
  -11.5568   -1.5579   22.0979 N   0  0  0  0  0  0  0  0  0  0  0  0
   -9.6518   -2.8055   22.7732 N   0  0  0  0  0  0  0  0  0  0  0  0
  -10.4510   -3.8110   23.2841 C   0  0  0  0  0  0  0  0  0  0  0  0
   -8.5509   -6.8206   25.5517 C   0  0  0  0  0  0  0  0  0  0  0  0
   -7.9180   -7.7921   26.2770 F   0  0  0  0  0  0  0  0  0  0  0  0
   -8.6107   -6.9639   24.2038 C   0  0  0  0  0  0  0  0  0  0  0  0
  -17.5969   -6.5821   26.5805 H   0  0  0  0  0  0  0  0  0  0  0  0
  -16.6264   -5.4067   26.0890 H   0  0  0  0  0  0  0  0  0  0  0  0
  -13.5855   -7.2446   25.5721 H   0  0  0  0  0  0  0  0  0  0  0  0
  -11.7792   -6.2687   22.3564 H   0  0  0  0  0  0  0  0  0  0  0  0
  -11.5411   -6.3860   24.0902 H   0  0  0  0  0  0  0  0  0  0  0  0
  -15.0917   -5.3645   25.8099 H   0  0  0  0  0  0  0  0  0  0  0  0
  -15.2978   -5.2893   24.0618 H   0  0  0  0  0  0  0  0  0  0  0  0
  -13.3808   -2.4543   22.4055 H   0  0  0  0  0  0  0  0  0  0  0  0
   -9.6408   -0.9709   21.8155 H   0  0  0  0  0  0  0  0  0  0  0  0
  -10.0555   -3.9004   25.9243 H   0  0  0  0  0  0  0  0  0  0  0  0
   -8.8925   -5.6554   27.2321 H   0  0  0  0  0  0  0  0  0  0  0  0
   -9.4400   -6.1842   22.4314 H   0  0  0  0  0  0  0  0  0  0  0  0
  -19.2839   -6.0736   24.6147 H   0  0  0  0  0  0  0  0  0  0  0  0
  -17.1508   -6.8553   22.7539 H   0  0  0  0  0  0  0  0  0  0  0  0
  -18.1129   -8.0046   23.3693 H   0  0  0  0  0  0  0  0  0  0  0  0
  -14.0961   -6.9576   22.6006 H   0  0  0  0  0  0  0  0  0  0  0  0
  -13.0370   -8.1354   23.3817 H   0  0  0  0  0  0  0  0  0  0  0  0
  -12.7447   -4.7532   25.5624 H   0  0  0  0  0  0  0  0  0  0  0  0
  -13.7606   -3.5562   24.7800 H   0  0  0  0  0  0  0  0  0  0  0  0
   -8.1500   -7.7675   23.7490 H   0  0  0  0  0  0  0  0  0  0  0  0
  2  3  1  0
  3  5  1  0
  8  9  4  0
  9 10  4  0
  8 11  4  0
 12 13  1  0
  1 13  1  0
 13 14  1  0
  1 15  1  0
 14 15  1  0
  2 15  1  0
  2 16  2  0
  3 17  1  0
  4 17  1  0
  4 18  1  0
  5 19  1  0
 18 19  1  0
  6 20  4  0
 18 20  1  0
  6 21  4  0
  7 21  4  0
  7 22  4  0
 20 23  4  0
 22 23  4  0
  8 23  1  0
 10 24  4  0
 24 25  1  0
 11 26  4  0
 24 26  4  0
  1 27  1  0
  1 28  1  0
  3 29  1  1
  4 30  1  0
  4 31  1  0
  5 32  1  0
  5 33  1  0
  6 34  1  0
  7 35  1  0
  9 36  1  0
 10 37  1  0
 11 38  1  0
 13 39  1  1
 14 40  1  0
 14 41  1  0
 17 42  1  0
 17 43  1  0
 19 44  1  0
 19 45  1  0
 26 46  1  0
M  END
