7ZZB_KGX_A_302
     RDKit          3D

 51 56  0  0  0  0  0  0  0  0999 V2000
   12.2082    7.1666    6.8804 N   0  0  0  0  0  0  0  0  0  0  0  0
   18.1207    7.6722    7.1755 C   0  0  1  0  0  0  0  0  0  0  0  0
   16.7718   11.3284    9.3976 C   0  0  0  0  0  0  0  0  0  0  0  0
   14.3115    7.5972    7.6398 N   0  0  0  0  0  0  0  0  0  0  0  0
   15.9587   10.3074    9.9514 C   0  0  0  0  0  0  0  0  0  0  0  0
   16.5106    9.4112    7.0315 O   0  0  0  0  0  0  0  0  0  0  0  0
   11.2847    6.0427    6.9461 C   0  0  0  0  0  0  0  0  0  0  0  0
   10.4969   11.9219   11.3632 O   0  0  0  0  0  0  0  0  0  0  0  0
   17.7511    9.9268    7.4791 C   0  0  2  0  0  0  0  0  0  0  0  0
   18.4379    8.7625    8.1856 C   0  0  2  0  0  0  0  0  0  0  0  0
   17.5437   11.1320    8.2609 N   0  0  0  0  0  0  0  0  0  0  0  0
   16.6584    7.9734    6.8575 C   0  0  2  0  0  0  0  0  0  0  0  0
   12.4381   10.3809    8.8119 O   0  0  0  0  0  0  0  0  0  0  0  0
   15.7096    7.2639    7.8040 C   0  0  0  0  0  0  0  0  0  0  0  0
   19.8330    8.9604    8.3571 O   0  0  0  0  0  0  0  0  0  0  0  0
   13.5429    7.0082    6.7031 C   0  0  0  0  0  0  0  0  0  0  0  0
   13.1040    8.3111   10.3892 N   0  0  0  0  0  0  0  0  0  0  0  0
   12.4692    5.6889    9.0778 N   0  0  0  0  0  0  0  0  0  0  0  0
   11.1882    5.5375    8.3669 C   0  0  0  0  0  0  0  0  0  0  0  0
   14.0240    6.4066    5.7426 O   0  0  0  0  0  0  0  0  0  0  0  0
   15.2211    9.5764   10.5354 C   0  0  0  0  0  0  0  0  0  0  0  0
   14.3503    8.5452   11.1265 C   0  0  0  0  0  0  0  0  0  0  0  0
   11.9632    9.1341   10.8241 C   0  0  0  0  0  0  0  0  0  0  0  0
   12.0667   10.5089   10.1987 C   0  0  2  0  0  0  0  0  0  0  0  0
   12.1042   11.6227    8.2016 C   0  0  2  0  0  0  0  0  0  0  0  0
   10.9887   12.2794    9.0243 C   0  0  1  0  0  0  0  0  0  0  0  0
   10.7383   11.2538   10.1402 C   0  0  2  0  0  0  0  0  0  0  0  0
   10.7671   10.6641    6.2622 C   0  0  0  0  0  0  0  0  0  0  0  0
   11.7272   11.6166    4.6229 C   0  0  0  0  0  0  0  0  0  0  0  0
   12.4166   12.0109    5.7569 C   0  0  0  0  0  0  0  0  0  0  0  0
   13.7854   13.2847    4.5972 C   0  0  0  0  0  0  0  0  0  0  0  0
   12.1684   12.1495    3.3957 C   0  0  0  0  0  0  0  0  0  0  0  0
   12.7816    6.8873   10.2932 C   0  0  0  0  0  0  0  0  0  0  0  0
   11.7721    6.3346   11.2748 C   0  0  0  0  0  0  0  0  0  0  0  0
   17.7052   13.2003    8.9854 C   0  0  0  0  0  0  0  0  0  0  0  0
   18.1468   12.3358    7.9989 C   0  0  0  0  0  0  0  0  0  0  0  0
   19.3447   13.9091    7.0344 C   0  0  0  0  0  0  0  0  0  0  0  0
   18.1556   14.5304    8.9144 C   0  0  0  0  0  0  0  0  0  0  0  0
   16.8539   12.5561    9.8718 N   0  0  0  0  0  0  0  0  0  0  0  0
   18.9765   12.6287    6.9922 N   0  0  0  0  0  0  0  0  0  0  0  0
   19.0026   14.8491    7.9156 N   0  0  0  0  0  0  0  0  0  0  0  0
   17.7500   15.5012    9.7423 N   0  0  0  0  0  0  0  0  0  0  0  0
   11.7842   11.4047    6.8116 N   0  0  0  0  0  0  0  0  0  0  0  0
   10.6860   10.7571    4.9553 N   0  0  0  0  0  0  0  0  0  0  0  0
   13.4685   12.8433    5.8093 N   0  0  0  0  0  0  0  0  0  0  0  0
   13.2075   13.0098    3.4269 N   0  0  0  0  0  0  0  0  0  0  0  0
   11.6355   11.8343    2.2037 N   0  0  0  0  0  0  0  0  0  0  0  0
   18.9781    7.7204    6.0369 O   0  0  0  0  0  0  0  0  0  0  0  0
   11.4903   13.5172    9.5275 O   0  0  0  0  0  0  0  0  0  0  0  0
   10.5741    6.4688   11.0986 O   0  0  0  0  0  0  0  0  0  0  0  0
   12.2651    5.6984   12.3104 O   0  0  0  0  0  0  0  0  0  0  0  0
  3  5  1  0
  1  7  1  0
  6  9  1  0
  9 10  1  0
  2 10  1  0
  3 11  1  0
  9 11  1  1
  6 12  1  0
  2 12  1  0
  4 14  1  0
 12 14  1  1
 10 15  1  6
  1 16  1  0
  4 16  1  0
 18 19  1  0
  7 19  1  0
 16 20  2  0
  5 21  3  0
 17 22  1  0
 21 22  1  0
 17 23  1  0
 13 24  1  0
 24 23  1  6
 13 25  1  0
 25 26  1  0
 26 27  1  0
 27  8  1  1
 24 27  1  0
 29 30  2  0
 29 32  1  0
 17 33  1  0
 33 34  1  0
 35 36  2  0
 11 36  1  0
 35 38  1  0
 35 39  1  0
  3 39  2  0
 37 40  2  0
 36 40  1  0
 38 41  2  0
 37 41  1  0
 38 42  1  0
 28 43  1  0
 30 43  1  0
 25 43  1  6
 29 44  1  0
 28 44  2  0
 30 45  1  0
 31 45  2  0
 32 46  2  0
 31 46  1  0
 32 47  1  0
  2 48  1  6
 26 49  1  1
 34 50  1  0
 34 51  2  0
M  END
