1HVY_D16_D_417
     RDKit          3D

 32 34  0  0  0  0  0  0  0  0999 V2000
   -0.6025    8.6445   19.7801 N   0  0  0  0  0  0  0  0  0  0  0  0
   -1.7514    8.1277   19.2897 C   0  0  0  0  0  0  0  0  0  0  0  0
   -2.7686    7.6031   20.2184 C   0  0  0  0  0  0  0  0  0  0  0  0
   -1.9330    8.1073   17.9467 N   0  0  0  0  0  0  0  0  0  0  0  0
   -1.0106    8.5840   17.0957 C   0  0  0  0  0  0  0  0  0  0  0  0
   -1.2148    8.5476   15.8669 O   0  0  0  0  0  0  0  0  0  0  0  0
    0.1566    9.1115   17.5554 C   0  0  0  0  0  0  0  0  0  0  0  0
    1.1315    9.6247   16.6881 C   0  0  0  0  0  0  0  0  0  0  0  0
    2.2570   10.1366   17.2730 C   0  0  0  0  0  0  0  0  0  0  0  0
    2.4459   10.1563   18.6509 C   0  0  0  0  0  0  0  0  0  0  0  0
    1.4970    9.6573   19.5114 C   0  0  0  0  0  0  0  0  0  0  0  0
    0.3589    9.1396   18.9411 C   0  0  0  0  0  0  0  0  0  0  0  0
    3.3852   10.7537   16.4891 C   0  0  0  0  0  0  0  0  0  0  0  0
    2.7383   11.3787   15.3422 N   0  0  0  0  0  0  0  0  0  0  0  0
    0.3099   14.5816   16.0510 C   0  0  0  0  0  0  0  0  0  0  0  0
    1.2806   13.2567   16.9932 S   0  0  0  0  0  0  0  0  0  0  0  0
    1.9012   12.5171   15.4367 C   0  0  0  0  0  0  0  0  0  0  0  0
    1.3617   13.2788   14.4314 C   0  0  0  0  0  0  0  0  0  0  0  0
    0.5704   14.3035   14.7625 C   0  0  0  0  0  0  0  0  0  0  0  0
   -0.4804   15.5630   16.6566 C   0  0  0  0  0  0  0  0  0  0  0  0
   -1.0507   16.4444   15.9627 O   0  0  0  0  0  0  0  0  0  0  0  0
   -0.6761   15.6037   18.0950 N   0  0  0  0  0  0  0  0  0  0  0  0
   -1.5031   16.7029   18.6447 C   0  0  1  0  0  0  0  0  0  0  0  0
   -2.4000   16.1866   19.6891 C   0  0  0  0  0  0  0  0  0  0  0  0
   -2.7541   14.7504   19.5606 C   0  0  0  0  0  0  0  0  0  0  0  0
   -3.6652   14.2256   20.6035 C   0  0  0  0  0  0  0  0  0  0  0  0
   -4.1473   14.9350   21.5334 O   0  0  0  0  0  0  0  0  0  0  0  0
   -4.0161   12.8752   20.5672 O   0  0  0  0  0  0  0  0  0  0  0  0
   -0.6247   17.7793   19.0208 C   0  0  0  0  0  0  0  0  0  0  0  0
   -1.1181   18.9795   18.8721 O   0  0  0  0  0  0  0  0  0  0  0  0
    0.6485   17.7473   19.5203 O   0  0  0  0  0  0  0  0  0  0  0  0
    2.9656   10.8261   14.0006 C   0  0  0  0  0  0  0  0  0  0  0  0
  1  2  1  0
  2  3  1  0
  2  4  2  0
  4  5  1  0
  5  6  2  0
  5  7  1  0
  7  8  1  0
  8  9  2  0
  9 10  1  0
 10 11  2  0
  1 12  1  0
  7 12  2  0
 11 12  1  0
  9 13  1  0
 13 14  1  0
 15 16  1  0
 14 17  1  0
 16 17  1  0
 17 18  2  0
 15 19  2  0
 18 19  1  0
 15 20  1  0
 20 21  2  0
 20 22  1  0
 22 23  1  0
 23 24  1  1
 24 25  1  0
 25 26  1  0
 26 27  2  0
 26 28  1  0
 23 29  1  0
 29 30  2  0
 29 31  1  0
 14 32  1  0
M  END
$$$$
