1HVY_D16_D_417
     RDKit          3D

 32 34  0  0  0  0  0  0  0  0999 V2000
   48.8288   42.8545   37.3146 N   0  0  0  0  0  0  0  0  0  0  0  0
   49.0921   42.4565   36.0497 C   0  0  0  0  0  0  0  0  0  0  0  0
   48.2733   42.9733   34.9384 C   0  0  0  0  0  0  0  0  0  0  0  0
   50.1098   41.5858   35.8416 N   0  0  0  0  0  0  0  0  0  0  0  0
   50.8594   41.1119   36.8494 C   0  0  0  0  0  0  0  0  0  0  0  0
   51.7868   40.3125   36.6172 O   0  0  0  0  0  0  0  0  0  0  0  0
   50.6220   41.4921   38.1343 C   0  0  0  0  0  0  0  0  0  0  0  0
   51.3966   41.0194   39.2032 C   0  0  0  0  0  0  0  0  0  0  0  0
   51.0650   41.4834   40.4465 C   0  0  0  0  0  0  0  0  0  0  0  0
   50.0195   42.3752   40.6621 C   0  0  0  0  0  0  0  0  0  0  0  0
   49.2539   42.8467   39.6222 C   0  0  0  0  0  0  0  0  0  0  0  0
   49.5735   42.3916   38.3655 C   0  0  0  0  0  0  0  0  0  0  0  0
   51.8135   41.1002   41.6959 C   0  0  0  0  0  0  0  0  0  0  0  0
   52.7691   42.1818   41.8993 N   0  0  0  0  0  0  0  0  0  0  0  0
   54.8534   42.2292   45.4080 C   0  0  0  0  0  0  0  0  0  0  0  0
   53.4469   41.2820   44.5655 S   0  0  0  0  0  0  0  0  0  0  0  0
   53.5831   42.3041   43.0517 C   0  0  0  0  0  0  0  0  0  0  0  0
   54.5970   43.1932   43.3029 C   0  0  0  0  0  0  0  0  0  0  0  0
   55.2160   43.1368   44.4860 C   0  0  0  0  0  0  0  0  0  0  0  0
   55.3147   41.9729   46.7026 C   0  0  0  0  0  0  0  0  0  0  0  0
   56.2858   42.6182   47.1761 O   0  0  0  0  0  0  0  0  0  0  0  0
   54.6974   40.9647   47.5462 N   0  0  0  0  0  0  0  0  0  0  0  0
   55.2431   40.7837   48.9114 C   0  0  1  0  0  0  0  0  0  0  0  0
   54.3029   41.3200   49.9065 C   0  0  0  0  0  0  0  0  0  0  0  0
   54.7677   41.2466   51.3147 C   0  0  0  0  0  0  0  0  0  0  0  0
   53.8075   41.7439   52.3266 C   0  0  0  0  0  0  0  0  0  0  0  0
   52.6342   42.1271   52.0495 O   0  0  0  0  0  0  0  0  0  0  0  0
   54.2108   41.7973   53.6617 O   0  0  0  0  0  0  0  0  0  0  0  0
   55.6263   39.4044   49.0613 C   0  0  0  0  0  0  0  0  0  0  0  0
   54.9628   38.5577   48.3204 O   0  0  0  0  0  0  0  0  0  0  0  0
   56.5854   38.8349   49.8533 O   0  0  0  0  0  0  0  0  0  0  0  0
   52.9276   43.2049   40.8577 C   0  0  0  0  0  0  0  0  0  0  0  0
  1  2  1  0
  2  3  1  0
  2  4  2  0
  4  5  1  0
  5  6  2  0
  5  7  1  0
  7  8  1  0
  8  9  2  0
  9 10  1  0
 10 11  2  0
  1 12  1  0
  7 12  2  0
 11 12  1  0
  9 13  1  0
 13 14  1  0
 15 16  1  0
 14 17  1  0
 16 17  1  0
 17 18  2  0
 15 19  2  0
 18 19  1  0
 15 20  1  0
 20 21  2  0
 20 22  1  0
 22 23  1  0
 23 24  1  1
 24 25  1  0
 25 26  1  0
 26 27  2  0
 26 28  1  0
 23 29  1  0
 29 30  2  0
 29 31  1  0
 14 32  1  0
M  END
$$$$
