1HVY_D16_D_417
     RDKit          3D

 32 34  0  0  0  0  0  0  0  0999 V2000
   61.8803   44.3447   27.1542 N   0  0  0  0  0  0  0  0  0  0  0  0
   61.6193   43.4376   28.1221 C   0  0  0  0  0  0  0  0  0  0  0  0
   60.3606   43.5272   28.8837 C   0  0  0  0  0  0  0  0  0  0  0  0
   62.5325   42.4658   28.3644 N   0  0  0  0  0  0  0  0  0  0  0  0
   63.6804   42.3786   27.6739 C   0  0  0  0  0  0  0  0  0  0  0  0
   64.4950   41.4699   27.9266 O   0  0  0  0  0  0  0  0  0  0  0  0
   63.9745   43.2746   26.6929 C   0  0  0  0  0  0  0  0  0  0  0  0
   65.1617   43.1995   25.9507 C   0  0  0  0  0  0  0  0  0  0  0  0
   65.3368   44.1525   24.9853 C   0  0  0  0  0  0  0  0  0  0  0  0
   64.4017   45.1518   24.7368 C   0  0  0  0  0  0  0  0  0  0  0  0
   63.2336   45.2351   25.4567 C   0  0  0  0  0  0  0  0  0  0  0  0
   63.0404   44.2849   26.4306 C   0  0  0  0  0  0  0  0  0  0  0  0
   66.5395   44.1973   24.0799 C   0  0  0  0  0  0  0  0  0  0  0  0
   67.5395   43.3794   24.7550 N   0  0  0  0  0  0  0  0  0  0  0  0
   67.5171   39.3618   24.0364 C   0  0  0  0  0  0  0  0  0  0  0  0
   66.4290   40.8902   23.7809 S   0  0  0  0  0  0  0  0  0  0  0  0
   67.6771   41.9840   24.5560 C   0  0  0  0  0  0  0  0  0  0  0  0
   68.7160   41.1596   24.9065 C   0  0  0  0  0  0  0  0  0  0  0  0
   68.6131   39.8546   24.6372 C   0  0  0  0  0  0  0  0  0  0  0  0
   67.1557   38.0633   23.6652 C   0  0  0  0  0  0  0  0  0  0  0  0
   67.9385   37.0985   23.8656 O   0  0  0  0  0  0  0  0  0  0  0  0
   65.8752   37.7767   23.0428 N   0  0  0  0  0  0  0  0  0  0  0  0
   65.5362   36.3568   22.7917 C   0  0  1  0  0  0  0  0  0  0  0  0
   64.3410   35.9794   23.5603 C   0  0  0  0  0  0  0  0  0  0  0  0
   64.5052   36.0127   25.0356 C   0  0  0  0  0  0  0  0  0  0  0  0
   63.3264   35.5709   25.8156 C   0  0  0  0  0  0  0  0  0  0  0  0
   62.6507   36.3397   26.5590 O   0  0  0  0  0  0  0  0  0  0  0  0
   62.9326   34.2345   25.7331 O   0  0  0  0  0  0  0  0  0  0  0  0
   65.4798   36.1548   21.3677 C   0  0  0  0  0  0  0  0  0  0  0  0
   65.2336   37.2259   20.6619 O   0  0  0  0  0  0  0  0  0  0  0  0
   65.6523   35.0162   20.6293 O   0  0  0  0  0  0  0  0  0  0  0  0
   68.4798   44.0176   25.6851 C   0  0  0  0  0  0  0  0  0  0  0  0
  1  2  1  0
  2  3  1  0
  2  4  2  0
  4  5  1  0
  5  6  2  0
  5  7  1  0
  7  8  1  0
  8  9  2  0
  9 10  1  0
 10 11  2  0
  1 12  1  0
  7 12  2  0
 11 12  1  0
  9 13  1  0
 13 14  1  0
 15 16  1  0
 14 17  1  0
 16 17  1  0
 17 18  2  0
 15 19  2  0
 18 19  1  0
 15 20  1  0
 20 21  2  0
 20 22  1  0
 22 23  1  0
 23 24  1  1
 24 25  1  0
 25 26  1  0
 26 27  2  0
 26 28  1  0
 23 29  1  0
 29 30  2  0
 29 31  1  0
 14 32  1  0
M  END
$$$$
