1HVY_D16_D_417
     RDKit          3D

 32 34  0  0  0  0  0  0  0  0999 V2000
    3.4674   14.3733   25.7145 N   0  0  0  0  0  0  0  0  0  0  0  0
    3.4872   13.1738   26.3378 C   0  0  0  0  0  0  0  0  0  0  0  0
    4.3243   12.9901   27.5369 C   0  0  0  0  0  0  0  0  0  0  0  0
    2.7301   12.1682   25.8350 N   0  0  0  0  0  0  0  0  0  0  0  0
    1.9653   12.3294   24.7435 C   0  0  0  0  0  0  0  0  0  0  0  0
    1.2829   11.3801   24.3119 O   0  0  0  0  0  0  0  0  0  0  0  0
    1.9216   13.5234   24.0921 C   0  0  0  0  0  0  0  0  0  0  0  0
    1.1235   13.7203   22.9562 C   0  0  0  0  0  0  0  0  0  0  0  0
    1.1581   14.9684   22.3975 C   0  0  0  0  0  0  0  0  0  0  0  0
    1.9361   16.0008   22.9110 C   0  0  0  0  0  0  0  0  0  0  0  0
    2.7216   15.8204   24.0247 C   0  0  0  0  0  0  0  0  0  0  0  0
    2.6986   14.5725   24.5998 C   0  0  0  0  0  0  0  0  0  0  0  0
    0.3389   15.3559   21.1947 C   0  0  0  0  0  0  0  0  0  0  0  0
   -1.0285   15.4417   21.6923 N   0  0  0  0  0  0  0  0  0  0  0  0
   -3.9624   16.3143   18.9926 C   0  0  0  0  0  0  0  0  0  0  0  0
   -2.0967   15.9983   19.0604 S   0  0  0  0  0  0  0  0  0  0  0  0
   -2.1465   15.7263   20.8711 C   0  0  0  0  0  0  0  0  0  0  0  0
   -3.4617   15.8858   21.2269 C   0  0  0  0  0  0  0  0  0  0  0  0
   -4.3495   16.1791   20.2721 C   0  0  0  0  0  0  0  0  0  0  0  0
   -4.6692   16.6280   17.8279 C   0  0  0  0  0  0  0  0  0  0  0  0
   -5.9051   16.8608   17.8717 O   0  0  0  0  0  0  0  0  0  0  0  0
   -4.0132   16.7003   16.5342 N   0  0  0  0  0  0  0  0  0  0  0  0
   -4.8446   17.0579   15.3616 C   0  0  1  0  0  0  0  0  0  0  0  0
   -4.5094   18.4125   14.8988 C   0  0  0  0  0  0  0  0  0  0  0  0
   -4.8723   19.5053   15.8361 C   0  0  0  0  0  0  0  0  0  0  0  0
   -4.5569   20.8743   15.3676 C   0  0  0  0  0  0  0  0  0  0  0  0
   -4.0584   21.7704   16.1085 O   0  0  0  0  0  0  0  0  0  0  0  0
   -4.8219   21.2035   14.0374 O   0  0  0  0  0  0  0  0  0  0  0  0
   -4.7338   15.9980   14.3941 C   0  0  0  0  0  0  0  0  0  0  0  0
   -3.5382   15.4900   14.2580 O   0  0  0  0  0  0  0  0  0  0  0  0
   -5.6867   15.4275   13.5954 O   0  0  0  0  0  0  0  0  0  0  0  0
   -1.2894   15.2066   23.1182 C   0  0  0  0  0  0  0  0  0  0  0  0
  1  2  1  0
  2  3  1  0
  2  4  2  0
  4  5  1  0
  5  6  2  0
  5  7  1  0
  7  8  1  0
  8  9  2  0
  9 10  1  0
 10 11  2  0
  1 12  1  0
  7 12  2  0
 11 12  1  0
  9 13  1  0
 13 14  1  0
 15 16  1  0
 14 17  1  0
 16 17  1  0
 17 18  2  0
 15 19  2  0
 18 19  1  0
 15 20  1  0
 20 21  2  0
 20 22  1  0
 22 23  1  0
 23 24  1  6
 24 25  1  0
 25 26  1  0
 26 27  2  0
 26 28  1  0
 23 29  1  0
 29 30  2  0
 29 31  1  0
 14 32  1  0
M  END
$$$$
