1HVY_D16_D_417
     RDKit          3D

 32 34  0  0  0  0  0  0  0  0999 V2000
    3.4125   10.1612  -11.2786 N   0  0  0  0  0  0  0  0  0  0  0  0
    4.3028   11.0228  -11.8197 C   0  0  0  0  0  0  0  0  0  0  0  0
    5.7426   10.7127  -11.7635 C   0  0  0  0  0  0  0  0  0  0  0  0
    3.8388   12.1556  -12.4015 N   0  0  0  0  0  0  0  0  0  0  0  0
    2.5287   12.4434  -12.4562 C   0  0  0  0  0  0  0  0  0  0  0  0
    2.1414   13.4956  -13.0001 O   0  0  0  0  0  0  0  0  0  0  0  0
    1.6056   11.5982  -11.9220 C   0  0  0  0  0  0  0  0  0  0  0  0
    0.2313   11.8708  -11.9749 C   0  0  0  0  0  0  0  0  0  0  0  0
   -0.5958   10.9386  -11.4113 C   0  0  0  0  0  0  0  0  0  0  0  0
   -0.1212    9.7765  -10.8119 C   0  0  0  0  0  0  0  0  0  0  0  0
    1.2236    9.4975  -10.7550 C   0  0  0  0  0  0  0  0  0  0  0  0
    2.0697   10.4231  -11.3172 C   0  0  0  0  0  0  0  0  0  0  0  0
   -2.0968   11.0621  -11.4095 C   0  0  0  0  0  0  0  0  0  0  0  0
   -2.5067   10.5923  -12.7270 N   0  0  0  0  0  0  0  0  0  0  0  0
   -6.4624   10.8938  -13.6857 C   0  0  0  0  0  0  0  0  0  0  0  0
   -5.2678   11.3401  -12.2860 S   0  0  0  0  0  0  0  0  0  0  0  0
   -3.8412   10.6420  -13.1983 C   0  0  0  0  0  0  0  0  0  0  0  0
   -4.3581   10.1753  -14.3802 C   0  0  0  0  0  0  0  0  0  0  0  0
   -5.6691   10.3120  -14.6008 C   0  0  0  0  0  0  0  0  0  0  0  0
   -7.8382   11.1408  -13.6597 C   0  0  0  0  0  0  0  0  0  0  0  0
   -8.5568   10.8690  -14.6563 O   0  0  0  0  0  0  0  0  0  0  0  0
   -8.4882   11.7120  -12.4933 N   0  0  0  0  0  0  0  0  0  0  0  0
   -9.9494   11.9441  -12.5663 C   0  0  1  0  0  0  0  0  0  0  0  0
  -10.6245   11.2697  -11.4478 C   0  0  0  0  0  0  0  0  0  0  0  0
  -10.4935    9.7908  -11.4335 C   0  0  0  0  0  0  0  0  0  0  0  0
  -11.1337    9.1080  -10.2859 C   0  0  0  0  0  0  0  0  0  0  0  0
  -11.8097    9.7094   -9.4018 O   0  0  0  0  0  0  0  0  0  0  0  0
  -10.9877    7.7253  -10.1642 O   0  0  0  0  0  0  0  0  0  0  0  0
  -10.1719   13.3602  -12.6968 C   0  0  0  0  0  0  0  0  0  0  0  0
  -11.2494   13.6971  -13.3537 O   0  0  0  0  0  0  0  0  0  0  0  0
   -9.4367   14.4166  -12.2332 O   0  0  0  0  0  0  0  0  0  0  0  0
   -1.4948   10.0485  -13.6420 C   0  0  0  0  0  0  0  0  0  0  0  0
  1  2  1  0
  2  3  1  0
  2  4  2  0
  4  5  1  0
  5  6  2  0
  5  7  1  0
  7  8  1  0
  8  9  2  0
  9 10  1  0
 10 11  2  0
  1 12  1  0
  7 12  2  0
 11 12  1  0
  9 13  1  0
 13 14  1  0
 15 16  1  0
 14 17  1  0
 16 17  1  0
 17 18  2  0
 15 19  2  0
 18 19  1  0
 15 20  1  0
 20 21  2  0
 20 22  1  0
 22 23  1  0
 23 24  1  1
 24 25  1  0
 25 26  1  0
 26 27  2  0
 26 28  1  0
 23 29  1  0
 29 30  2  0
 29 31  1  0
 14 32  1  0
M  END
$$$$
