1HVY_D16_D_417
     RDKit          3D

 32 34  0  0  0  0  0  0  0  0999 V2000
   63.4188   34.2618   22.0003 N   0  0  0  0  0  0  0  0  0  0  0  0
   63.5834   33.6729   23.2060 C   0  0  0  0  0  0  0  0  0  0  0  0
   64.8092   33.9327   23.9819 C   0  0  0  0  0  0  0  0  0  0  0  0
   62.6070   32.8537   23.6671 N   0  0  0  0  0  0  0  0  0  0  0  0
   61.4881   32.6134   22.9653 C   0  0  0  0  0  0  0  0  0  0  0  0
   60.6130   31.8537   23.4238 O   0  0  0  0  0  0  0  0  0  0  0  0
   61.2900   33.1900   21.7487 C   0  0  0  0  0  0  0  0  0  0  0  0
   60.1260   32.9632   21.0006 C   0  0  0  0  0  0  0  0  0  0  0  0
   60.0409   33.6085   19.7976 C   0  0  0  0  0  0  0  0  0  0  0  0
   61.0429   34.4478   19.3219 C   0  0  0  0  0  0  0  0  0  0  0  0
   62.1879   34.6791   20.0466 C   0  0  0  0  0  0  0  0  0  0  0  0
   62.2902   34.0394   21.2587 C   0  0  0  0  0  0  0  0  0  0  0  0
   58.8470   33.4985   18.8861 C   0  0  0  0  0  0  0  0  0  0  0  0
   57.7130   33.8853   19.7161 N   0  0  0  0  0  0  0  0  0  0  0  0
   54.0011   32.7020   18.4997 C   0  0  0  0  0  0  0  0  0  0  0  0
   55.8216   32.4972   18.0209 S   0  0  0  0  0  0  0  0  0  0  0  0
   56.3710   33.5419   19.4215 C   0  0  0  0  0  0  0  0  0  0  0  0
   55.2211   33.9171   20.0686 C   0  0  0  0  0  0  0  0  0  0  0  0
   54.0504   33.4858   19.5898 C   0  0  0  0  0  0  0  0  0  0  0  0
   52.9310   32.1394   17.7976 C   0  0  0  0  0  0  0  0  0  0  0  0
   51.7473   32.3111   18.1886 O   0  0  0  0  0  0  0  0  0  0  0  0
   53.1386   31.3451   16.5996 N   0  0  0  0  0  0  0  0  0  0  0  0
   51.9442   30.7577   15.9496 C   0  0  1  0  0  0  0  0  0  0  0  0
   51.6461   31.4727   14.7000 C   0  0  0  0  0  0  0  0  0  0  0  0
   51.1240   32.8518   14.8734 C   0  0  0  0  0  0  0  0  0  0  0  0
   50.7763   33.5610   13.6207 C   0  0  0  0  0  0  0  0  0  0  0  0
   50.8959   33.0490   12.4701 O   0  0  0  0  0  0  0  0  0  0  0  0
   50.2904   34.8667   13.7042 O   0  0  0  0  0  0  0  0  0  0  0  0
   52.1426   29.3356   15.8494 C   0  0  0  0  0  0  0  0  0  0  0  0
   53.3886   28.9500   15.7792 O   0  0  0  0  0  0  0  0  0  0  0  0
   51.2310   28.3158   15.8247 O   0  0  0  0  0  0  0  0  0  0  0  0
   57.9510   34.6598   20.9409 C   0  0  0  0  0  0  0  0  0  0  0  0
  1  2  1  0
  2  3  1  0
  2  4  2  0
  4  5  1  0
  5  6  2  0
  5  7  1  0
  7  8  1  0
  8  9  2  0
  9 10  1  0
 10 11  2  0
  1 12  1  0
  7 12  2  0
 11 12  1  0
  9 13  1  0
 13 14  1  0
 15 16  1  0
 14 17  1  0
 16 17  1  0
 17 18  2  0
 15 19  2  0
 18 19  1  0
 15 20  1  0
 20 21  2  0
 20 22  1  0
 22 23  1  0
 23 24  1  6
 24 25  1  0
 25 26  1  0
 26 27  2  0
 26 28  1  0
 23 29  1  0
 29 30  2  0
 29 31  1  0
 14 32  1  0
M  END
$$$$
