1HVY_D16_D_417
     RDKit          3D

 32 34  0  0  0  0  0  0  0  0999 V2000
   -2.6644   -5.2860   20.3190 N   0  0  0  0  0  0  0  0  0  0  0  0
   -2.9710   -6.3105   21.1461 C   0  0  0  0  0  0  0  0  0  0  0  0
   -4.3838   -6.6153   21.4351 C   0  0  0  0  0  0  0  0  0  0  0  0
   -1.9598   -7.0312   21.6894 N   0  0  0  0  0  0  0  0  0  0  0  0
   -0.6711   -6.7588   21.4297 C   0  0  0  0  0  0  0  0  0  0  0  0
    0.2303   -7.4450   21.9488 O   0  0  0  0  0  0  0  0  0  0  0  0
   -0.3273   -5.7352   20.6015 C   0  0  0  0  0  0  0  0  0  0  0  0
    1.0105   -5.4366   20.3065 C   0  0  0  0  0  0  0  0  0  0  0  0
    1.2260   -4.3902   19.4524 C   0  0  0  0  0  0  0  0  0  0  0  0
    0.1895   -3.6482   18.8957 C   0  0  0  0  0  0  0  0  0  0  0  0
   -1.1260   -3.9321   19.1762 C   0  0  0  0  0  0  0  0  0  0  0  0
   -1.3614   -4.9811   20.0322 C   0  0  0  0  0  0  0  0  0  0  0  0
    2.5987   -3.9580   19.0084 C   0  0  0  0  0  0  0  0  0  0  0  0
    2.7544   -4.5347   17.6788 N   0  0  0  0  0  0  0  0  0  0  0  0
    5.5068   -7.5148   17.2305 C   0  0  0  0  0  0  0  0  0  0  0  0
    4.6515   -6.5193   18.5954 S   0  0  0  0  0  0  0  0  0  0  0  0
    3.6754   -5.5662   17.3732 C   0  0  0  0  0  0  0  0  0  0  0  0
    4.0551   -6.0502   16.1471 C   0  0  0  0  0  0  0  0  0  0  0  0
    4.9708   -7.0224   16.1012 C   0  0  0  0  0  0  0  0  0  0  0  0
    6.4739   -8.4985   17.4575 C   0  0  0  0  0  0  0  0  0  0  0  0
    7.0106   -9.1037   16.4934 O   0  0  0  0  0  0  0  0  0  0  0  0
    6.8966   -8.8567   18.7999 N   0  0  0  0  0  0  0  0  0  0  0  0
    7.8836   -9.9524   18.9397 C   0  0  1  0  0  0  0  0  0  0  0  0
    8.5783   -9.8448   20.2310 C   0  0  0  0  0  0  0  0  0  0  0  0
    7.8007  -10.3159   21.4048 C   0  0  0  0  0  0  0  0  0  0  0  0
    8.5071  -10.2439   22.7044 C   0  0  0  0  0  0  0  0  0  0  0  0
    9.7426   -9.9966   22.8169 O   0  0  0  0  0  0  0  0  0  0  0  0
    7.7781  -10.4606   23.8747 O   0  0  0  0  0  0  0  0  0  0  0  0
    7.2130  -11.1966   18.6678 C   0  0  0  0  0  0  0  0  0  0  0  0
    7.9952  -12.1952   18.3563 O   0  0  0  0  0  0  0  0  0  0  0  0
    5.8806  -11.5059   18.6917 O   0  0  0  0  0  0  0  0  0  0  0  0
    1.9083   -4.0478   16.5816 C   0  0  0  0  0  0  0  0  0  0  0  0
  1  2  1  0
  2  3  1  0
  2  4  2  0
  4  5  1  0
  5  6  2  0
  5  7  1  0
  7  8  1  0
  8  9  2  0
  9 10  1  0
 10 11  2  0
  1 12  1  0
  7 12  2  0
 11 12  1  0
  9 13  1  0
 13 14  1  0
 15 16  1  0
 14 17  1  0
 16 17  1  0
 17 18  2  0
 15 19  2  0
 18 19  1  0
 15 20  1  0
 20 21  2  0
 20 22  1  0
 22 23  1  0
 23 24  1  1
 24 25  1  0
 25 26  1  0
 26 27  2  0
 26 28  1  0
 23 29  1  0
 29 30  2  0
 29 31  1  0
 14 32  1  0
M  END
$$$$
