1KZK_JE2_A_701
     RDKit          3D

 41 44  0  0  0  0  0  0  0  0999 V2000
   20.9181   -9.7615   13.6118 C   0  0  0  0  0  0  0  0  0  0  0  0
   21.3020   -8.9702   14.6550 C   0  0  0  0  0  0  0  0  0  0  0  0
   20.9833   -7.6209   14.6571 C   0  0  0  0  0  0  0  0  0  0  0  0
   20.2790   -7.0162   13.6312 C   0  0  0  0  0  0  0  0  0  0  0  0
   19.8942   -7.8242   12.5813 C   0  0  0  0  0  0  0  0  0  0  0  0
   20.2159   -9.1880   12.5782 C   0  0  0  0  0  0  0  0  0  0  0  0
   19.1319   -7.3291   11.4197 C   0  0  0  0  0  0  0  0  0  0  0  0
   19.9774   -5.5665   13.6573 C   0  0  0  0  0  0  0  0  0  0  0  0
   19.8297   -9.9862   11.5225 O   0  0  0  0  0  0  0  0  0  0  0  0
   19.2854   -5.1431   12.7020 O   0  0  0  0  0  0  0  0  0  0  0  0
   21.2062   -1.4820   16.1602 C   0  0  0  0  0  0  0  0  0  0  0  0
   20.4792   -4.8285   14.7242 N   0  0  0  0  0  0  0  0  0  0  0  0
   20.3597   -0.6181   15.8320 O   0  0  0  0  0  0  0  0  0  0  0  0
   21.5203   -2.6233   15.1743 C   0  0  2  0  0  0  0  0  0  0  0  0
   17.9250   -3.8274   15.8100 C   0  0  0  0  0  0  0  0  0  0  0  0
   19.2319   -3.2414   16.0937 C   0  0  0  0  0  0  0  0  0  0  0  0
   15.3893   -4.7837   15.1066 C   0  0  0  0  0  0  0  0  0  0  0  0
   20.2897   -3.4357   15.0461 C   0  0  2  0  0  0  0  0  0  0  0  0
   22.5747   -3.2714   15.8354 O   0  0  0  0  0  0  0  0  0  0  0  0
   17.3768   -4.8980   16.5016 C   0  0  0  0  0  0  0  0  0  0  0  0
   17.1940   -3.2366   14.7608 C   0  0  0  0  0  0  0  0  0  0  0  0
   16.1239   -5.3640   16.1475 C   0  0  0  0  0  0  0  0  0  0  0  0
   15.9487   -3.7235   14.4320 C   0  0  0  0  0  0  0  0  0  0  0  0
   21.2624    0.7647   18.3863 C   0  0  0  0  0  0  0  0  0  0  0  0
   21.8688   -1.4307   17.4133 N   0  0  0  0  0  0  0  0  0  0  0  0
   21.3610    1.6449   17.4705 O   0  0  0  0  0  0  0  0  0  0  0  0
   22.1738   -0.3679   18.3166 C   0  0  1  0  0  0  0  0  0  0  0  0
   23.6333   -0.0884   18.1977 C   0  0  2  0  0  0  0  0  0  0  0  0
   22.5319   -2.6071   18.0269 C   0  0  0  0  0  0  0  0  0  0  0  0
   24.1278    0.7548   19.3429 C   0  0  0  0  0  0  0  0  0  0  0  0
   24.1342    0.3428   16.8727 C   0  0  0  0  0  0  0  0  0  0  0  0
   24.1760   -1.8393   18.4200 S   0  0  0  0  0  0  0  0  0  0  0  0
   20.2840    0.9747   19.3661 N   0  0  0  0  0  0  0  0  0  0  0  0
   19.3051    1.9994   19.5034 C   0  0  0  0  0  0  0  0  0  0  0  0
   18.3998    1.7825   20.6491 C   0  0  0  0  0  0  0  0  0  0  0  0
   17.3717    0.9002   20.7108 C   0  0  0  0  0  0  0  0  0  0  0  0
   16.6635    0.7239   21.9000 C   0  0  0  0  0  0  0  0  0  0  0  0
   16.9620    1.4195   23.0411 C   0  0  0  0  0  0  0  0  0  0  0  0
   18.0004    2.3179   22.9872 C   0  0  0  0  0  0  0  0  0  0  0  0
   18.7016    2.4903   21.8091 C   0  0  0  0  0  0  0  0  0  0  0  0
   16.8611    0.1223   19.5455 C   0  0  0  0  0  0  0  0  0  0  0  0
  1  2  2  0
  2  3  1  0
  3  4  2  0
  4  5  1  0
  1  6  1  0
  5  6  2  0
  5  7  1  0
  4  8  1  0
  6  9  1  0
  8 10  2  0
  8 12  1  0
 11 13  2  0
 11 14  1  0
 15 16  1  0
 12 18  1  0
 18 16  1  1
 14 18  1  0
 14 19  1  1
 15 20  2  0
 15 21  1  0
 20 22  1  0
 17 22  2  0
 17 23  1  0
 21 23  2  0
 11 25  1  0
 24 26  2  0
 25 27  1  0
 27 24  1  6
 27 28  1  0
 25 29  1  0
 28 30  1  1
 28 31  1  0
 29 32  1  0
 28 32  1  0
 24 33  1  0
 33 34  1  0
 34 35  1  0
 35 36  2  0
 36 37  1  0
 37 38  2  0
 38 39  1  0
 35 40  1  0
 39 40  2  0
 36 41  1  0
M  END
$$$$
