1KZK_JE2_A_701
     RDKit          3D

 41 44  0  0  0  0  0  0  0  0999 V2000
   17.3024   -7.6777   12.4511 C   0  0  0  0  0  0  0  0  0  0  0  0
   18.5959   -7.3805   12.7674 C   0  0  0  0  0  0  0  0  0  0  0  0
   18.8813   -6.2830   13.5650 C   0  0  0  0  0  0  0  0  0  0  0  0
   17.8996   -5.4495   14.0709 C   0  0  0  0  0  0  0  0  0  0  0  0
   16.5948   -5.7583   13.7467 C   0  0  0  0  0  0  0  0  0  0  0  0
   16.3054   -6.8673   12.9406 C   0  0  0  0  0  0  0  0  0  0  0  0
   15.4391   -4.9710   14.2158 C   0  0  0  0  0  0  0  0  0  0  0  0
   18.2446   -4.2722   14.9005 C   0  0  0  0  0  0  0  0  0  0  0  0
   14.9981   -7.1653   12.6195 O   0  0  0  0  0  0  0  0  0  0  0  0
   17.3049   -3.7993   15.5816 O   0  0  0  0  0  0  0  0  0  0  0  0
   19.9946   -0.7558   16.9551 C   0  0  0  0  0  0  0  0  0  0  0  0
   19.5575   -3.8158   14.8476 N   0  0  0  0  0  0  0  0  0  0  0  0
   20.9184   -1.2925   17.6103 O   0  0  0  0  0  0  0  0  0  0  0  0
   19.4112   -1.5084   15.7442 C   0  0  2  0  0  0  0  0  0  0  0  0
   22.4343   -3.8430   15.2472 C   0  0  0  0  0  0  0  0  0  0  0  0
   21.6441   -2.6152   15.2409 C   0  0  0  0  0  0  0  0  0  0  0  0
   23.9936   -6.1562   15.4843 C   0  0  0  0  0  0  0  0  0  0  0  0
   20.1915   -2.7570   15.5935 C   0  0  2  0  0  0  0  0  0  0  0  0
   19.6139   -0.5725   14.7187 O   0  0  0  0  0  0  0  0  0  0  0  0
   22.6812   -4.6244   14.1277 C   0  0  0  0  0  0  0  0  0  0  0  0
   22.9743   -4.2277   16.4900 C   0  0  0  0  0  0  0  0  0  0  0  0
   23.4524   -5.7654   14.2538 C   0  0  0  0  0  0  0  0  0  0  0  0
   23.7382   -5.3694   16.5833 C   0  0  0  0  0  0  0  0  0  0  0  0
   20.7141    1.1819   19.3498 C   0  0  0  0  0  0  0  0  0  0  0  0
   19.4863    0.5221   17.3024 N   0  0  0  0  0  0  0  0  0  0  0  0
   20.8195    0.1110   20.0319 O   0  0  0  0  0  0  0  0  0  0  0  0
   19.5445    1.3083   18.4929 C   0  0  1  0  0  0  0  0  0  0  0  0
   18.1979    1.2510   19.1298 C   0  0  2  0  0  0  0  0  0  0  0  0
   18.6087    1.3146   16.4071 C   0  0  0  0  0  0  0  0  0  0  0  0
   18.0408    2.3155   20.1829 C   0  0  0  0  0  0  0  0  0  0  0  0
   17.7001   -0.0812   19.5419 C   0  0  0  0  0  0  0  0  0  0  0  0
   17.2550    1.7175   17.6122 S   0  0  0  0  0  0  0  0  0  0  0  0
   21.7368    2.1281   19.4914 N   0  0  0  0  0  0  0  0  0  0  0  0
   22.9619    2.0774   20.2150 C   0  0  0  0  0  0  0  0  0  0  0  0
   23.9885    1.2479   19.5536 C   0  0  0  0  0  0  0  0  0  0  0  0
   25.2916    1.1365   19.9126 C   0  0  0  0  0  0  0  0  0  0  0  0
   26.1279    0.2292   19.2613 C   0  0  0  0  0  0  0  0  0  0  0  0
   25.6862   -0.5766   18.2461 C   0  0  0  0  0  0  0  0  0  0  0  0
   24.3679   -0.4686   17.8737 C   0  0  0  0  0  0  0  0  0  0  0  0
   23.5407    0.4294   18.5206 C   0  0  0  0  0  0  0  0  0  0  0  0
   25.9566    1.9912   20.9379 C   0  0  0  0  0  0  0  0  0  0  0  0
  1  2  2  0
  2  3  1  0
  3  4  2  0
  4  5  1  0
  1  6  1  0
  5  6  2  0
  5  7  1  0
  4  8  1  0
  6  9  1  0
  8 10  2  0
  8 12  1  0
 11 13  2  0
 11 14  1  0
 15 16  1  0
 12 18  1  0
 18 16  1  6
 14 18  1  0
 14 19  1  6
 15 20  2  0
 15 21  1  0
 20 22  1  0
 17 22  2  0
 17 23  1  0
 21 23  2  0
 11 25  1  0
 24 26  2  0
 25 27  1  0
 27 24  1  1
 27 28  1  0
 25 29  1  0
 28 30  1  1
 28 31  1  0
 29 32  1  0
 28 32  1  0
 24 33  1  0
 33 34  1  0
 34 35  1  0
 35 36  2  0
 36 37  1  0
 37 38  2  0
 38 39  1  0
 35 40  1  0
 39 40  2  0
 36 41  1  0
M  END
$$$$
