1KZK_JE2_A_701
     RDKit          3D

 41 44  0  0  0  0  0  0  0  0999 V2000
   17.2430   -7.2926   12.3672 C   0  0  0  0  0  0  0  0  0  0  0  0
   18.4660   -7.3062   12.9720 C   0  0  0  0  0  0  0  0  0  0  0  0
   18.7933   -6.3287   13.8991 C   0  0  0  0  0  0  0  0  0  0  0  0
   17.9244   -5.3121   14.2538 C   0  0  0  0  0  0  0  0  0  0  0  0
   16.6899   -5.3070   13.6380 C   0  0  0  0  0  0  0  0  0  0  0  0
   16.3583   -6.2944   12.7008 C   0  0  0  0  0  0  0  0  0  0  0  0
   15.6538   -4.2948   13.9164 C   0  0  0  0  0  0  0  0  0  0  0  0
   18.3182   -4.2716   15.2311 C   0  0  0  0  0  0  0  0  0  0  0  0
   15.1230   -6.2783   12.0884 O   0  0  0  0  0  0  0  0  0  0  0  0
   17.5191   -4.0938   16.1800 O   0  0  0  0  0  0  0  0  0  0  0  0
   19.8769   -0.5634   17.1407 C   0  0  0  0  0  0  0  0  0  0  0  0
   19.5193   -3.6066   15.0074 N   0  0  0  0  0  0  0  0  0  0  0  0
   20.8700   -1.0295   17.7465 O   0  0  0  0  0  0  0  0  0  0  0  0
   19.3690   -1.2907   15.8813 C   0  0  2  0  0  0  0  0  0  0  0  0
   22.3935   -3.6514   15.5902 C   0  0  0  0  0  0  0  0  0  0  0  0
   21.6049   -2.4286   15.4687 C   0  0  0  0  0  0  0  0  0  0  0  0
   23.8889   -5.9724   16.0544 C   0  0  0  0  0  0  0  0  0  0  0  0
   20.1387   -2.5499   15.7685 C   0  0  2  0  0  0  0  0  0  0  0  0
   19.6582   -0.3451   14.8858 O   0  0  0  0  0  0  0  0  0  0  0  0
   22.9393   -4.3442   14.5193 C   0  0  0  0  0  0  0  0  0  0  0  0
   22.6012   -4.1289   16.8990 C   0  0  0  0  0  0  0  0  0  0  0  0
   23.6766   -5.4897   14.7576 C   0  0  0  0  0  0  0  0  0  0  0  0
   23.3400   -5.2727   17.1037 C   0  0  0  0  0  0  0  0  0  0  0  0
   20.4073    1.2766   19.6586 C   0  0  0  0  0  0  0  0  0  0  0  0
   19.2227    0.6135   17.5870 N   0  0  0  0  0  0  0  0  0  0  0  0
   20.3534    0.5763   20.7214 O   0  0  0  0  0  0  0  0  0  0  0  0
   19.2113    1.3155   18.8302 C   0  0  1  0  0  0  0  0  0  0  0  0
   17.8974    1.0459   19.4809 C   0  0  2  0  0  0  0  0  0  0  0  0
   18.2330    1.3508   16.7643 C   0  0  0  0  0  0  0  0  0  0  0  0
   17.6347    2.0060   20.6105 C   0  0  0  0  0  0  0  0  0  0  0  0
   17.5780   -0.3637   19.8028 C   0  0  0  0  0  0  0  0  0  0  0  0
   16.8687    1.4959   18.0151 S   0  0  0  0  0  0  0  0  0  0  0  0
   21.6141    1.9359   19.3932 N   0  0  0  0  0  0  0  0  0  0  0  0
   22.8371    1.9733   20.1211 C   0  0  0  0  0  0  0  0  0  0  0  0
   23.9727    1.4018   19.3706 C   0  0  0  0  0  0  0  0  0  0  0  0
   25.2763    1.4140   19.7445 C   0  0  0  0  0  0  0  0  0  0  0  0
   26.2341    0.7390   18.9870 C   0  0  0  0  0  0  0  0  0  0  0  0
   25.9145    0.0463   17.8499 C   0  0  0  0  0  0  0  0  0  0  0  0
   24.5964    0.0308   17.4617 C   0  0  0  0  0  0  0  0  0  0  0  0
   23.6489    0.6985   18.2138 C   0  0  0  0  0  0  0  0  0  0  0  0
   25.8102    2.1833   20.9052 C   0  0  0  0  0  0  0  0  0  0  0  0
  1  2  2  0
  2  3  1  0
  3  4  2  0
  4  5  1  0
  1  6  1  0
  5  6  2  0
  5  7  1  0
  4  8  1  0
  6  9  1  0
  8 10  2  0
  8 12  1  0
 11 13  2  0
 11 14  1  0
 15 16  1  0
 12 18  1  0
 18 16  1  6
 14 18  1  0
 14 19  1  6
 15 20  2  0
 15 21  1  0
 20 22  1  0
 17 22  2  0
 17 23  1  0
 21 23  2  0
 11 25  1  0
 24 26  2  0
 25 27  1  0
 27 24  1  1
 27 28  1  0
 25 29  1  0
 28 30  1  1
 28 31  1  0
 29 32  1  0
 28 32  1  0
 24 33  1  0
 33 34  1  0
 34 35  1  0
 35 36  2  0
 36 37  1  0
 37 38  2  0
 38 39  1  0
 35 40  1  0
 39 40  2  0
 36 41  1  0
M  END
$$$$
