1KZK_JE2_A_701
     RDKit          3D

 41 44  0  0  0  0  0  0  0  0999 V2000
   24.2915    5.5910   26.2697 C   0  0  0  0  0  0  0  0  0  0  0  0
   23.8729    4.3376   25.9301 C   0  0  0  0  0  0  0  0  0  0  0  0
   23.6173    4.0263   24.6035 C   0  0  0  0  0  0  0  0  0  0  0  0
   23.7668    4.9421   23.5773 C   0  0  0  0  0  0  0  0  0  0  0  0
   24.1913    6.2065   23.9299 C   0  0  0  0  0  0  0  0  0  0  0  0
   24.4498    6.5221   25.2705 C   0  0  0  0  0  0  0  0  0  0  0  0
   24.4050    7.2882   22.9502 C   0  0  0  0  0  0  0  0  0  0  0  0
   23.4614    4.5798   22.1743 C   0  0  0  0  0  0  0  0  0  0  0  0
   24.8704    7.7897   25.6129 O   0  0  0  0  0  0  0  0  0  0  0  0
   23.7183    5.4620   21.3220 O   0  0  0  0  0  0  0  0  0  0  0  0
   20.7978    2.0669   19.0906 C   0  0  0  0  0  0  0  0  0  0  0  0
   22.9321    3.3146   21.9418 N   0  0  0  0  0  0  0  0  0  0  0  0
   21.5649    2.2900   18.1250 O   0  0  0  0  0  0  0  0  0  0  0  0
   21.0421    2.8102   20.4177 C   0  0  2  0  0  0  0  0  0  0  0  0
   24.6099    1.3707   20.5469 C   0  0  0  0  0  0  0  0  0  0  0  0
   23.1528    1.3934   20.4551 C   0  0  0  0  0  0  0  0  0  0  0  0
   27.3893    1.0953   20.7411 C   0  0  0  0  0  0  0  0  0  0  0  0
   22.4909    2.7176   20.7055 C   0  0  2  0  0  0  0  0  0  0  0  0
   20.2302    2.0751   21.2947 O   0  0  0  0  0  0  0  0  0  0  0  0
   25.4129    2.5015   20.5808 C   0  0  0  0  0  0  0  0  0  0  0  0
   25.2084    0.0972   20.6109 C   0  0  0  0  0  0  0  0  0  0  0  0
   26.7848    2.3564   20.6768 C   0  0  0  0  0  0  0  0  0  0  0  0
   26.5774   -0.0145   20.7059 C   0  0  0  0  0  0  0  0  0  0  0  0
   19.9408    0.1393   16.7334 C   0  0  0  0  0  0  0  0  0  0  0  0
   19.7232    1.1470   18.9854 N   0  0  0  0  0  0  0  0  0  0  0  0
   20.5656    1.0956   16.1693 O   0  0  0  0  0  0  0  0  0  0  0  0
   19.1134    0.4761   17.8825 C   0  0  1  0  0  0  0  0  0  0  0  0
   17.7995    1.1345   17.6328 C   0  0  2  0  0  0  0  0  0  0  0  0
   18.8770    0.7557   20.1391 C   0  0  0  0  0  0  0  0  0  0  0  0
   16.9240    0.2962   16.7398 C   0  0  0  0  0  0  0  0  0  0  0  0
   17.8192    2.5721   17.2785 C   0  0  0  0  0  0  0  0  0  0  0  0
   17.2061    1.0320   19.3784 S   0  0  0  0  0  0  0  0  0  0  0  0
   20.1162   -1.1405   16.1923 N   0  0  0  0  0  0  0  0  0  0  0  0
   20.9107   -1.5914   15.1003 C   0  0  0  0  0  0  0  0  0  0  0  0
   21.9755   -2.5283   15.5099 C   0  0  0  0  0  0  0  0  0  0  0  0
   22.9881   -2.2723   16.3749 C   0  0  0  0  0  0  0  0  0  0  0  0
   23.8653   -3.2886   16.7552 C   0  0  0  0  0  0  0  0  0  0  0  0
   23.7530   -4.5689   16.2827 C   0  0  0  0  0  0  0  0  0  0  0  0
   22.7316   -4.8369   15.4034 C   0  0  0  0  0  0  0  0  0  0  0  0
   21.8629   -3.8297   15.0290 C   0  0  0  0  0  0  0  0  0  0  0  0
   23.3053   -0.9214   16.9211 C   0  0  0  0  0  0  0  0  0  0  0  0
  1  2  2  0
  2  3  1  0
  3  4  2  0
  4  5  1  0
  1  6  1  0
  5  6  2  0
  5  7  1  0
  4  8  1  0
  6  9  1  0
  8 10  2  0
  8 12  1  0
 11 13  2  0
 11 14  1  0
 15 16  1  0
 12 18  1  0
 18 16  1  1
 14 18  1  0
 14 19  1  1
 15 20  2  0
 15 21  1  0
 20 22  1  0
 17 22  2  0
 17 23  1  0
 21 23  2  0
 11 25  1  0
 24 26  2  0
 25 27  1  0
 27 24  1  6
 27 28  1  0
 25 29  1  0
 28 30  1  6
 28 31  1  0
 29 32  1  0
 28 32  1  0
 24 33  1  0
 33 34  1  0
 34 35  1  0
 35 36  2  0
 36 37  1  0
 37 38  2  0
 38 39  1  0
 35 40  1  0
 39 40  2  0
 36 41  1  0
M  END
$$$$
