1KZK_JE2_A_701
     RDKit          3D

 41 44  0  0  0  0  0  0  0  0999 V2000
   11.6037  -17.6621   20.5202 C   0  0  0  0  0  0  0  0  0  0  0  0
   10.3180  -17.5656   20.0738 C   0  0  0  0  0  0  0  0  0  0  0  0
    9.9843  -18.0314   18.8113 C   0  0  0  0  0  0  0  0  0  0  0  0
   10.9089  -18.6035   17.9557 C   0  0  0  0  0  0  0  0  0  0  0  0
   12.2060  -18.6977   18.4159 C   0  0  0  0  0  0  0  0  0  0  0  0
   12.5442  -18.2272   19.6917 C   0  0  0  0  0  0  0  0  0  0  0  0
   13.3015  -19.2895   17.6252 C   0  0  0  0  0  0  0  0  0  0  0  0
   10.5199  -19.0684   16.6046 C   0  0  0  0  0  0  0  0  0  0  0  0
   13.8443  -18.3229   20.1409 O   0  0  0  0  0  0  0  0  0  0  0  0
   11.3921  -19.7248   15.9890 O   0  0  0  0  0  0  0  0  0  0  0  0
    7.8591  -18.4216   12.6725 C   0  0  0  0  0  0  0  0  0  0  0  0
    9.2437  -18.7407   16.1589 N   0  0  0  0  0  0  0  0  0  0  0  0
    7.8625  -19.5904   12.2203 O   0  0  0  0  0  0  0  0  0  0  0  0
    8.8366  -18.0640   13.8082 C   0  0  2  0  0  0  0  0  0  0  0  0
    7.0507  -20.7703   15.8497 C   0  0  0  0  0  0  0  0  0  0  0  0
    7.2032  -19.5361   15.0846 C   0  0  0  0  0  0  0  0  0  0  0  0
    6.5310  -23.0873   17.3331 C   0  0  0  0  0  0  0  0  0  0  0  0
    8.6073  -19.0374   14.8994 C   0  0  2  0  0  0  0  0  0  0  0  0
    8.4364  -16.7532   14.1090 O   0  0  0  0  0  0  0  0  0  0  0  0
    8.0994  -21.5985   16.2227 C   0  0  0  0  0  0  0  0  0  0  0  0
    5.7361  -21.1100   16.2248 C   0  0  0  0  0  0  0  0  0  0  0  0
    7.8338  -22.7409   16.9552 C   0  0  0  0  0  0  0  0  0  0  0  0
    5.5039  -22.2545   16.9542 C   0  0  0  0  0  0  0  0  0  0  0  0
    6.2955  -18.2493    9.9281 C   0  0  0  0  0  0  0  0  0  0  0  0
    6.9759  -17.4341   12.1657 N   0  0  0  0  0  0  0  0  0  0  0  0
    7.3398  -18.8925    9.5834 O   0  0  0  0  0  0  0  0  0  0  0  0
    6.4753  -17.1459   10.8600 C   0  0  1  0  0  0  0  0  0  0  0  0
    7.1776  -15.9240   10.3742 C   0  0  2  0  0  0  0  0  0  0  0  0
    6.4346  -16.3300   12.9952 C   0  0  0  0  0  0  0  0  0  0  0  0
    6.4846  -15.3293    9.1772 C   0  0  0  0  0  0  0  0  0  0  0  0
    8.6505  -15.9972   10.2420 C   0  0  0  0  0  0  0  0  0  0  0  0
    6.8353  -14.9044   11.8753 S   0  0  0  0  0  0  0  0  0  0  0  0
    5.0790  -18.6716    9.3774 N   0  0  0  0  0  0  0  0  0  0  0  0
    4.7828  -19.7225    8.4637 C   0  0  0  0  0  0  0  0  0  0  0  0
    3.4697  -19.5637    7.8080 C   0  0  0  0  0  0  0  0  0  0  0  0
    2.9621  -20.3387    6.8176 C   0  0  0  0  0  0  0  0  0  0  0  0
    1.6579  -20.1393    6.3635 C   0  0  0  0  0  0  0  0  0  0  0  0
    0.8415  -19.1698    6.8817 C   0  0  0  0  0  0  0  0  0  0  0  0
    1.3482  -18.3778    7.8837 C   0  0  0  0  0  0  0  0  0  0  0  0
    2.6394  -18.5775    8.3332 C   0  0  0  0  0  0  0  0  0  0  0  0
    3.7369  -21.3828    6.0871 C   0  0  0  0  0  0  0  0  0  0  0  0
  1  2  2  0
  2  3  1  0
  3  4  2  0
  4  5  1  0
  1  6  1  0
  5  6  2  0
  5  7  1  0
  4  8  1  0
  6  9  1  0
  8 10  2  0
  8 12  1  0
 11 13  2  0
 11 14  1  0
 15 16  1  0
 12 18  1  0
 18 16  1  1
 14 18  1  0
 14 19  1  1
 15 20  2  0
 15 21  1  0
 20 22  1  0
 17 22  2  0
 17 23  1  0
 21 23  2  0
 11 25  1  0
 24 26  2  0
 25 27  1  0
 27 24  1  6
 27 28  1  0
 25 29  1  0
 28 30  1  6
 28 31  1  0
 29 32  1  0
 28 32  1  0
 24 33  1  0
 33 34  1  0
 34 35  1  0
 35 36  2  0
 36 37  1  0
 37 38  2  0
 38 39  1  0
 35 40  1  0
 39 40  2  0
 36 41  1  0
M  END
$$$$
