1KZK_JE2_A_701
     RDKit          3D

 41 44  0  0  0  0  0  0  0  0999 V2000
   18.1719   -6.6753   12.3540 C   0  0  0  0  0  0  0  0  0  0  0  0
   19.3795   -6.2325   12.8092 C   0  0  0  0  0  0  0  0  0  0  0  0
   19.4368   -5.3196   13.8511 C   0  0  0  0  0  0  0  0  0  0  0  0
   18.3057   -4.8186   14.4707 C   0  0  0  0  0  0  0  0  0  0  0  0
   17.0893   -5.2726   14.0045 C   0  0  0  0  0  0  0  0  0  0  0  0
   17.0304   -6.1952   12.9515 C   0  0  0  0  0  0  0  0  0  0  0  0
   15.7968   -4.8385   14.5670 C   0  0  0  0  0  0  0  0  0  0  0  0
   18.4058   -3.8263   15.5654 C   0  0  0  0  0  0  0  0  0  0  0  0
   15.8095   -6.6401   12.4906 O   0  0  0  0  0  0  0  0  0  0  0  0
   17.5003   -3.8848   16.4298 O   0  0  0  0  0  0  0  0  0  0  0  0
   19.3213   -0.0520   17.9186 C   0  0  0  0  0  0  0  0  0  0  0  0
   19.4797   -2.9430   15.5309 N   0  0  0  0  0  0  0  0  0  0  0  0
   19.6626   -0.7468   18.9042 O   0  0  0  0  0  0  0  0  0  0  0  0
   18.9720   -0.7623   16.5970 C   0  0  2  0  0  0  0  0  0  0  0  0
   22.2176   -2.8314   16.3896 C   0  0  0  0  0  0  0  0  0  0  0  0
   21.3450   -1.6618   16.4418 C   0  0  0  0  0  0  0  0  0  0  0  0
   23.8891   -5.0735   16.5225 C   0  0  0  0  0  0  0  0  0  0  0  0
   19.8691   -1.9343   16.4851 C   0  0  2  0  0  0  0  0  0  0  0  0
   19.2301    0.2545   15.6651 O   0  0  0  0  0  0  0  0  0  0  0  0
   22.7292   -3.3787   15.2219 C   0  0  0  0  0  0  0  0  0  0  0  0
   22.5486   -3.4150   17.6281 C   0  0  0  0  0  0  0  0  0  0  0  0
   23.5540   -4.4862   15.2967 C   0  0  0  0  0  0  0  0  0  0  0  0
   23.3724   -4.5175   17.6696 C   0  0  0  0  0  0  0  0  0  0  0  0
   18.5436    1.8600   20.3156 C   0  0  0  0  0  0  0  0  0  0  0  0
   19.2574    1.3628   17.9966 N   0  0  0  0  0  0  0  0  0  0  0  0
   17.7135    2.4975   21.0419 O   0  0  0  0  0  0  0  0  0  0  0  0
   18.6518    2.2658   18.9222 C   0  0  1  0  0  0  0  0  0  0  0  0
   17.4435    2.8361   18.2610 C   0  0  2  0  0  0  0  0  0  0  0  0
   19.7893    2.2565   16.9391 C   0  0  0  0  0  0  0  0  0  0  0  0
   16.9353    4.0491   18.9939 C   0  0  0  0  0  0  0  0  0  0  0  0
   16.3806    1.8870   17.8585 C   0  0  0  0  0  0  0  0  0  0  0  0
   18.3050    3.3481   16.7101 S   0  0  0  0  0  0  0  0  0  0  0  0
   19.2660    0.8303   20.9315 N   0  0  0  0  0  0  0  0  0  0  0  0
   19.3467    0.4336   22.2965 C   0  0  0  0  0  0  0  0  0  0  0  0
   18.0629   -0.0632   22.8297 C   0  0  0  0  0  0  0  0  0  0  0  0
   17.8552   -0.6176   24.0498 C   0  0  0  0  0  0  0  0  0  0  0  0
   16.5642   -0.9458   24.4654 C   0  0  0  0  0  0  0  0  0  0  0  0
   15.4642   -0.7318   23.6785 C   0  0  0  0  0  0  0  0  0  0  0  0
   15.6654   -0.1731   22.4393 C   0  0  0  0  0  0  0  0  0  0  0  0
   16.9443    0.1526   22.0299 C   0  0  0  0  0  0  0  0  0  0  0  0
   18.9430   -0.9933   24.9982 C   0  0  0  0  0  0  0  0  0  0  0  0
  1  2  2  0
  2  3  1  0
  3  4  2  0
  4  5  1  0
  1  6  1  0
  5  6  2  0
  5  7  1  0
  4  8  1  0
  6  9  1  0
  8 10  2  0
  8 12  1  0
 11 13  2  0
 11 14  1  0
 15 16  1  0
 12 18  1  0
 18 16  1  6
 14 18  1  0
 14 19  1  6
 15 20  2  0
 15 21  1  0
 20 22  1  0
 17 22  2  0
 17 23  1  0
 21 23  2  0
 11 25  1  0
 24 26  2  0
 25 27  1  0
 27 24  1  1
 27 28  1  0
 25 29  1  0
 28 30  1  1
 28 31  1  0
 29 32  1  0
 28 32  1  0
 24 33  1  0
 33 34  1  0
 34 35  1  0
 35 36  2  0
 36 37  1  0
 37 38  2  0
 38 39  1  0
 35 40  1  0
 39 40  2  0
 36 41  1  0
M  END
$$$$
