
     RDKit          3D

 17 18  0  0  0  0  0  0  0  0999 V2000
   24.3784   -7.8574  -24.0895 O   0  0  0  0  0  0  0  0  0  0  0  0
   23.7699   -2.5282  -25.5437 O   0  0  0  0  0  0  0  0  0  0  0  0
   20.9707   -3.2066  -24.7977 C   0  0  0  0  0  0  0  0  0  0  0  0
   19.6009   -3.3447  -24.5749 C   0  0  0  0  0  0  0  0  0  0  0  0
   19.0241   -2.8187  -23.4175 C   0  0  0  0  0  0  0  0  0  0  0  0
   19.8139   -2.1579  -22.4751 C   0  0  0  0  0  0  0  0  0  0  0  0
   21.1845   -2.0155  -22.6891 C   0  0  0  0  0  0  0  0  0  0  0  0
   24.6090   -3.7291  -22.0632 C   0  0  0  0  0  0  0  0  0  0  0  0
   24.9195   -5.0374  -21.7524 C   0  0  0  0  0  0  0  0  0  0  0  0
   24.5976   -5.8507  -22.8839 C   0  0  0  0  0  0  0  0  0  0  0  0
   24.7258   -7.3003  -23.0492 C   0  0  0  0  0  0  0  0  0  0  0  0
   25.2908   -8.0993  -21.9021 C   0  0  0  0  0  0  0  0  0  0  0  0
   24.1044   -4.9906  -23.8544 C   0  0  0  0  0  0  0  0  0  0  0  0
   23.4944   -2.3528  -24.1309 S   0  0  0  0  0  6  0  0  0  0  0  0
   23.9765   -1.2077  -23.3817 O   0  0  0  0  0  0  0  0  0  0  0  0
   24.1525   -3.7182  -23.3545 N   0  0  0  0  0  0  0  0  0  0  0  0
   21.7544   -2.5324  -23.8566 C   0  0  0  0  0  0  0  0  0  0  0  0
  3  4  4  0
  4  5  4  0
  5  6  4  0
  6  7  4  0
  8  9  4  0
  9 10  4  0
  1 11  2  0
 10 11  1  0
 11 12  1  0
 10 13  4  0
  2 14  2  0
 14 15  2  0
 14 16  1  0
 13 16  4  0
  8 16  4  0
  7 17  4  0
 14 17  1  0
  3 17  4  0
M  END
