7JNB_A2G_A_503
     RDKit          3D

 15 15  0  0  0  0  0  0  0  0999 V2000
   37.4288   -6.1083  109.8445 O   0  0  0  0  0  0  0  0  0  0  0  0
   37.1796   -6.8803  108.7451 C   0  0  2  0  0  0  0  0  0  0  0  0
   38.1580   -7.8140  108.4394 O   0  0  0  0  0  0  0  0  0  0  0  0
   37.0166   -5.9749  107.5325 C   0  0  2  0  0  0  0  0  0  0  0  0
   36.4968   -6.6774  106.3987 N   0  0  0  0  0  0  0  0  0  0  0  0
   38.3349   -5.3020  107.3354 C   0  0  1  0  0  0  0  0  0  0  0  0
   38.4455   -4.6000  106.1414 O   0  0  0  0  0  0  0  0  0  0  0  0
   38.5186   -4.3989  108.5399 C   0  0  1  0  0  0  0  0  0  0  0  0
   37.3815   -3.6216  108.6266 O   0  0  0  0  0  0  0  0  0  0  0  0
   38.5505   -5.3199  109.7611 C   0  0  1  0  0  0  0  0  0  0  0  0
   38.4983   -4.4100  110.9959 C   0  0  0  0  0  0  0  0  0  0  0  0
   38.6385   -5.2409  112.1192 O   0  0  0  0  0  0  0  0  0  0  0  0
   35.2760   -6.2180  105.7979 C   0  0  0  0  0  0  0  0  0  0  0  0
   34.6807   -5.1771  106.2260 O   0  0  0  0  0  0  0  0  0  0  0  0
   34.6854   -6.9709  104.6465 C   0  0  0  0  0  0  0  0  0  0  0  0
  1  2  1  0
  2  3  1  6
  2  4  1  0
  4  5  1  6
  4  6  1  0
  6  7  1  6
  6  8  1  0
  8  9  1  1
  1 10  1  0
  8 10  1  0
 10 11  1  1
 11 12  1  0
  5 13  1  0
 13 14  2  0
 13 15  1  0
M  END
$$$$
