7VQ9_ISY_B_301
     RDKit          3D

 14 13  0  0  0  0  0  0  0  0999 V2000
   17.9721    5.8871   10.6923 P   0  0  2  0  0  0  0  0  0  0  0  0
   19.1826    5.2267   11.4633 O   0  0  0  0  0  0  0  0  0  0  0  0
   19.9114    3.8696   11.3155 P   0  0  2  0  0  0  0  0  0  0  0  0
   18.3814    6.3881    9.3518 O   0  0  0  0  0  0  0  0  0  0  0  0
   17.3886    6.9947   11.5912 O   0  0  0  0  0  0  0  0  0  0  0  0
   16.9535    4.8124   10.4409 O   0  0  0  0  0  0  0  0  0  0  0  0
   19.8703    3.3239    9.9146 O   0  0  0  0  0  0  0  0  0  0  0  0
   19.4616    3.0648   12.5181 O   0  0  0  0  0  0  0  0  0  0  0  0
   21.8474    4.4377   11.7795 S   0  0  0  0  0  0  0  0  0  0  0  0
   21.5198    4.5926   13.5288 C   0  0  0  0  0  0  0  0  0  0  0  0
   22.7146    4.5277   14.3255 C   0  0  0  0  0  0  0  0  0  0  0  0
   23.6141    3.3851   13.9509 C   0  0  0  0  0  0  0  0  0  0  0  0
   24.1436    3.4026   12.6069 C   0  0  0  0  0  0  0  0  0  0  0  0
   23.9562    2.4462   14.8306 C   0  0  0  0  0  0  0  0  0  0  0  0
  1  2  1  0
  2  3  1  0
  1  4  1  6
  1  5  2  0
  1  6  1  0
  3  7  2  0
  3  8  1  1
  3  9  1  0
  9 10  1  0
 10 11  1  0
 11 12  1  0
 12 13  1  0
 12 14  2  0
M  END
