8AQL_PLG_B_601
     RDKit          3D

 20 20  0  0  0  0  0  0  0  0999 V2000
  -20.0299   58.5777    5.8810 N   0  0  0  0  0  0  0  0  0  0  0  0
  -19.7640   59.5467    4.9661 C   0  0  0  0  0  0  0  0  0  0  0  0
  -18.4863   59.5121    4.1951 C   0  0  0  0  0  0  0  0  0  0  0  0
  -20.7115   60.5434    4.7844 C   0  0  0  0  0  0  0  0  0  0  0  0
  -20.4656   61.5621    3.8439 O   0  0  0  0  0  0  0  0  0  0  0  0
  -21.9010   60.5453    5.5218 C   0  0  0  0  0  0  0  0  0  0  0  0
  -22.9066   61.6297    5.2970 C   0  0  0  0  0  0  0  0  0  0  0  0
  -22.1518   59.5457    6.4515 C   0  0  0  0  0  0  0  0  0  0  0  0
  -21.1715   58.5852    6.5855 C   0  0  0  0  0  0  0  0  0  0  0  0
  -23.4160   59.5449    7.2197 C   0  0  0  0  0  0  0  0  0  0  0  0
  -24.5040   59.2430    6.4188 O   0  0  0  0  0  0  0  0  0  0  0  0
  -25.9715   59.2697    7.2441 P   0  0  2  0  0  0  0  0  0  0  0  0
  -26.2468   60.5994    7.8820 O   0  0  0  0  0  0  0  0  0  0  0  0
  -26.0383   58.0739    8.4572 O   0  0  0  0  0  0  0  0  0  0  0  0
  -27.2273   58.9151    6.1284 O   0  0  0  0  0  0  0  0  0  0  0  0
  -22.6969   65.2449    4.5745 C   0  0  0  0  0  0  0  0  0  0  0  0
  -21.5143   65.4639    4.8912 O   0  0  0  0  0  0  0  0  0  0  0  0
  -23.4538   66.2868    4.0778 O   0  0  0  0  0  0  0  0  0  0  0  0
  -23.2988   63.8961    4.7222 C   0  0  0  0  0  0  0  0  0  0  0  0
  -22.2804   62.9348    5.1502 N   0  0  0  0  0  0  0  0  0  0  0  0
  1  2  2  0
  2  3  1  0
  2  4  1  0
  4  5  1  0
  4  6  2  0
  6  7  1  0
  6  8  1  0
  1  9  1  0
  8  9  2  0
  8 10  1  0
 10 11  1  0
 11 12  1  0
 12 13  2  0
 12 14  1  1
 12 15  1  0
 16 17  2  0
 16 18  1  0
 16 19  1  0
  7 20  1  0
 19 20  1  0
M  END
$$$$
