1TOW_CRZ_A_501
     RDKit          3D

 19 21  0  0  0  0  0  0  0  0999 V2000
    9.7380    6.1007    9.5267 O   0  0  0  0  0  0  0  0  0  0  0  0
    9.6092    5.1092    8.8233 C   0  0  0  0  0  0  0  0  0  0  0  0
    8.3791    4.6661    8.5827 O   0  0  0  0  0  0  0  0  0  0  0  0
   10.8123    4.4049    8.2344 C   0  0  0  0  0  0  0  0  0  0  0  0
   10.4109    3.2686    7.2740 C   0  0  0  0  0  0  0  0  0  0  0  0
   10.6403    3.6150    5.7914 C   0  0  0  0  0  0  0  0  0  0  0  0
   12.0102    4.0708    5.5095 N   0  0  0  0  0  0  0  0  0  0  0  0
   12.4697    5.3460    5.7394 C   0  0  0  0  0  0  0  0  0  0  0  0
   11.9395    6.5144    6.2894 C   0  0  0  0  0  0  0  0  0  0  0  0
   13.8766    5.3966    5.2822 C   0  0  0  0  0  0  0  0  0  0  0  0
   14.6665    6.5357    5.3655 C   0  0  0  0  0  0  0  0  0  0  0  0
   14.0785    7.6750    5.9325 C   0  0  0  0  0  0  0  0  0  0  0  0
   12.7457    7.6625    6.3761 C   0  0  0  0  0  0  0  0  0  0  0  0
   14.1838    4.0795    4.7595 C   0  0  0  0  0  0  0  0  0  0  0  0
   12.9592    3.2722    4.9288 C   0  0  0  0  0  0  0  0  0  0  0  0
   13.0077    1.9400    4.5024 C   0  0  0  0  0  0  0  0  0  0  0  0
   15.3609    3.5837    4.1983 C   0  0  0  0  0  0  0  0  0  0  0  0
   15.3395    2.2472    3.7821 C   0  0  0  0  0  0  0  0  0  0  0  0
   14.1922    1.4555    3.9356 C   0  0  0  0  0  0  0  0  0  0  0  0
  1  2  1  0
  2  3  2  0
  2  4  1  0
  4  5  1  0
  5  6  1  0
  6  7  1  0
  7  8  1  0
  8  9  2  0
  8 10  1  0
 10 11  2  0
 11 12  1  0
  9 13  1  0
 12 13  2  0
 10 14  1  0
  7 15  1  0
 14 15  2  0
 15 16  1  0
 14 17  1  0
 17 18  2  0
 16 19  2  0
 18 19  1  0
M  END
