6YYO_Q1K_BBB_323
     RDKit          3D

 19 21  0  0  0  0  0  0  0  0999 V2000
   13.4356   15.6316   23.3581 C   0  0  0  0  0  0  0  0  0  0  0  0
    9.5876   12.7746   24.4923 C   0  0  0  0  0  0  0  0  0  0  0  0
   10.9388   13.5690   26.3146 C   0  0  0  0  0  0  0  0  0  0  0  0
   10.1403   13.8336   23.5979 C   0  0  0  0  0  0  0  0  0  0  0  0
   11.6117   14.5566   25.3519 C   0  0  0  0  0  0  0  0  0  0  0  0
   14.1695   16.3130   22.3999 C   0  0  0  0  0  0  0  0  0  0  0  0
   12.3096   14.8604   23.0203 C   0  0  0  0  0  0  0  0  0  0  0  0
   12.3451   15.4011   19.6243 C   0  0  0  0  0  0  0  0  0  0  0  0
    7.2994   13.0811   26.2825 O   0  0  0  0  0  0  0  0  0  0  0  0
    8.5259   12.7873   26.9309 S   0  0  1  0  0  0  0  0  0  0  0  0
    8.9301   13.3671   28.1334 O   0  0  0  0  0  0  0  0  0  0  0  0
    8.6276   10.9998   26.8978 C   0  0  0  0  0  0  0  0  0  0  0  0
    9.5432   13.3853   25.8654 N   0  0  0  0  0  0  0  0  0  0  0  0
   11.5000   14.1662   23.9266 N   0  0  0  0  0  0  0  0  0  0  0  0
   11.8404   14.7496   21.7216 N   0  0  0  0  0  0  0  0  0  0  0  0
   13.6382   16.1460   21.1505 C   0  0  0  0  0  0  0  0  0  0  0  0
   14.0898   16.7181   20.0522 N   0  0  0  0  0  0  0  0  0  0  0  0
   13.3177   16.1993   19.1292 N   0  0  0  0  0  0  0  0  0  0  0  0
   12.5514   15.4348   20.9389 N   0  0  0  0  0  0  0  0  0  0  0  0
  2  4  1  0
  3  5  1  0
  1  6  2  0
  1  7  1  0
  9 10  2  0
 10 11  2  0
 10 12  1  1
  2 13  1  0
 10 13  1  0
  3 13  1  0
  4 14  1  0
  7 14  1  0
  5 14  1  0
  7 15  2  0
  6 16  1  0
 16 17  2  0
  8 18  2  0
 17 18  1  0
  8 19  1  0
 15 19  1  0
 16 19  1  0
M  END
