8D5D_5DK_B_505
     RDKit          3D

 27 27  0  0  0  0  0  0  0  0999 V2000
   13.6290  -14.7045   36.4121 C   0  0  0  0  0  0  0  0  0  0  0  0
   13.1272  -15.9449   36.0843 C   0  0  0  0  0  0  0  0  0  0  0  0
   13.7693  -17.1009   36.4985 C   0  0  0  0  0  0  0  0  0  0  0  0
   14.9202  -16.9816   37.2453 C   0  0  0  0  0  0  0  0  0  0  0  0
   15.3810  -15.7163   37.5470 C   0  0  0  0  0  0  0  0  0  0  0  0
   12.0088  -19.6711   33.0437 C   0  0  0  0  0  0  0  0  0  0  0  0
   11.9468  -16.0181   35.3188 O   0  0  0  0  0  0  0  0  0  0  0  0
   17.4750  -21.1204   35.6398 O   0  0  0  0  0  0  0  0  0  0  0  0
   18.3317  -19.6608   37.8366 O   0  0  0  0  0  0  0  0  0  0  0  0
   16.1880  -21.1290   37.9026 O   0  0  0  0  0  0  0  0  0  0  0  0
   16.0606  -18.8872   36.5798 O   0  0  0  0  0  0  0  0  0  0  0  0
   12.4568  -18.4312   35.0966 N   0  0  0  0  0  0  0  0  0  0  0  0
   16.9921  -20.2368   36.9704 P   0  0  2  0  0  0  0  0  0  0  0  0
   12.9346  -13.4855   35.9635 C   0  0  0  0  0  0  0  0  0  0  0  0
   13.1916  -18.3880   36.1260 C   0  0  0  0  0  0  0  0  0  0  0  0
   15.6566  -18.1850   37.7149 C   0  0  0  0  0  0  0  0  0  0  0  0
   14.7516  -14.6119   37.1408 N   0  0  0  0  0  0  0  0  0  0  0  0
   11.8322  -19.6198   34.5158 C   0  0  1  0  0  0  0  0  0  0  0  0
   10.4056  -19.6737   34.8738 C   0  0  0  0  0  0  0  0  0  0  0  0
    9.7165  -20.8803   34.6181 O   0  0  0  0  0  0  0  0  0  0  0  0
   11.3013  -18.5360   32.3604 C   0  0  0  0  0  0  0  0  0  0  0  0
   11.6038  -18.4729   30.8607 C   0  0  0  0  0  0  0  0  0  0  0  0
   10.9854  -17.2949   30.3332 N   0  0  0  0  0  0  0  0  0  0  0  0
   11.1132  -16.8616   28.9903 C   0  0  0  0  0  0  0  0  0  0  0  0
   11.6965  -17.6627   27.9771 N   0  0  0  0  0  0  0  0  0  0  0  0
   10.6503  -15.6626   28.7374 N   0  0  0  0  0  0  0  0  0  0  0  0
    9.7244  -18.7665   35.3834 O   0  0  0  0  0  0  0  0  0  0  0  0
  1  2  2  0
  2  3  1  0
  3  4  2  0
  4  5  1  0
  2  7  1  0
 10 13  2  0
 13  8  1  6
 11 13  1  0
  9 13  1  0
  1 14  1  0
 12 15  2  0
  3 15  1  0
 11 16  1  0
  4 16  1  0
  1 17  1  0
  5 17  2  0
 18  6  1  6
 12 18  1  0
 18 19  1  0
 19 20  1  0
  6 21  1  0
 21 22  1  0
 22 23  1  0
 23 24  1  0
 24 25  1  0
 24 26  2  0
 19 27  2  0
M  END
$$$$
