
     RDKit          3D

 64 69  0  0  0  0  0  0  0  0999 V2000
  -56.5327   63.0567  344.6574 C   0  0  0  0  0  0  0  0  0  0  0  0
  -55.5202   62.4413  349.2515 C   0  0  0  0  0  0  0  0  0  0  0  0
  -53.2827   57.8897  348.0685 C   0  0  0  0  0  0  0  0  0  0  0  0
  -54.6026   58.3923  343.4329 C   0  0  0  0  0  0  0  0  0  0  0  0
  -55.5102   62.6092  346.8048 N   0  0  0  0  0  0  0  0  0  0  0  0
  -56.1529   63.3994  345.9051 C   0  0  0  0  0  0  0  0  0  0  0  0
  -56.4842   64.7130  346.5859 C   0  0  0  0  0  0  0  0  0  0  0  0
  -56.8584   64.1441  347.9634 C   0  0  1  0  0  0  0  0  0  0  0  0
  -55.8667   62.9806  348.0640 C   0  0  0  0  0  0  0  0  0  0  0  0
  -56.8752   65.1645  349.0986 C   0  0  0  0  0  0  0  0  0  0  0  0
  -55.2618   65.6822  346.6674 C   0  0  0  0  0  0  0  0  0  0  0  0
  -55.5639   67.1850  346.7337 C   0  0  0  0  0  0  0  0  0  0  0  0
  -56.1544   67.6413  348.0501 C   0  0  0  0  0  0  0  0  0  0  0  0
  -55.6212   67.5763  349.1484 O   0  0  0  0  0  0  0  0  0  0  0  0
  -57.3877   68.1880  347.8228 O   0  0  0  0  0  0  0  0  0  0  0  0
  -54.3876   60.2423  348.3866 N   0  0  0  0  0  0  0  0  0  0  0  0
  -54.6163   61.1604  349.3813 C   0  0  0  0  0  0  0  0  0  0  0  0
  -53.9569   60.7449  350.5239 C   0  0  0  0  0  0  0  0  0  0  0  0
  -53.3351   59.4890  350.1967 C   0  0  0  0  0  0  0  0  0  0  0  0
  -53.6486   59.1948  348.8797 C   0  0  0  0  0  0  0  0  0  0  0  0
  -53.9170   61.4611  351.8268 C   0  0  0  0  0  0  0  0  0  0  0  0
  -52.5786   58.6875  351.1100 C   0  0  0  0  0  0  0  0  0  0  0  0
  -52.7297   58.6588  352.4429 C   0  0  0  0  0  0  0  0  0  0  0  0
  -54.0750   58.5518  345.8326 N   0  0  0  0  0  0  0  0  0  0  0  0
  -53.5049   57.7245  346.7473 C   0  0  0  0  0  0  0  0  0  0  0  0
  -53.1177   56.5045  346.0430 C   0  0  0  0  0  0  0  0  0  0  0  0
  -53.4563   56.6445  344.7516 C   0  0  0  0  0  0  0  0  0  0  0  0
  -54.0935   57.9496  344.6064 C   0  0  0  0  0  0  0  0  0  0  0  0
  -52.4404   55.3490  346.6981 C   0  0  0  0  0  0  0  0  0  0  0  0
  -53.2857   55.6517  343.6426 C   0  0  0  0  0  0  0  0  0  0  0  0
  -54.5985   55.3052  342.9592 C   0  0  0  0  0  0  0  0  0  0  0  0
  -55.2901   60.6875  344.3874 N   0  0  0  0  0  0  0  0  0  0  0  0
  -55.3211   59.7849  343.3438 C   0  0  0  0  0  0  0  0  0  0  0  0
  -56.0954   60.3071  342.3040 C   0  0  0  0  0  0  0  0  0  0  0  0
  -56.5692   61.5555  342.7832 C   0  0  0  0  0  0  0  0  0  0  0  0
  -56.0528   61.7312  344.0278 C   0  0  0  0  0  0  0  0  0  0  0  0
  -56.4105   59.6789  341.0022 C   0  0  0  0  0  0  0  0  0  0  0  0
  -57.4190   62.6736  342.4432 C   0  0  0  0  0  0  0  0  0  0  0  0
  -57.9940   62.8183  341.3655 O   0  0  0  0  0  0  0  0  0  0  0  0
  -57.5385   63.6351  343.6607 C   0  0  2  0  0  0  0  0  0  0  0  0
  -57.3545   65.0645  343.2386 C   0  0  0  0  0  0  0  0  0  0  0  0
  -56.9408   65.9743  343.9393 O   0  0  0  0  0  0  0  0  0  0  0  0
  -57.6929   65.1906  341.9146 O   0  0  0  0  0  0  0  0  0  0  0  0
  -57.0321   66.2453  341.2159 C   0  0  0  0  0  0  0  0  0  0  0  0
  -58.4567   67.2938  347.4806 C   0  0  0  0  0  0  0  0  0  0  0  0
  -59.1004   66.8496  348.7574 C   0  0  0  0  0  0  0  0  0  0  0  0
  -60.0312   67.4475  349.5281 C   0  0  0  0  0  0  0  0  0  0  0  0
  -60.6312   68.7946  349.2525 C   0  0  0  0  0  0  0  0  0  0  0  0
  -60.6287   66.6645  350.6852 C   0  0  0  0  0  0  0  0  0  0  0  0
  -60.8757   67.4708  351.9706 C   0  0  0  0  0  0  0  0  0  0  0  0
  -60.4103   66.7510  353.2409 C   0  0  0  0  0  0  0  0  0  0  0  0
  -60.8515   65.2767  353.3602 C   0  0  0  0  0  0  0  0  0  0  0  0
  -62.3646   65.1705  353.5658 C   0  0  0  0  0  0  0  0  0  0  0  0
  -60.1208   64.4634  354.4515 C   0  0  0  0  0  0  0  0  0  0  0  0
  -60.6723   64.6852  355.8627 C   0  0  0  0  0  0  0  0  0  0  0  0
  -59.7807   65.6454  356.6618 C   0  0  0  0  0  0  0  0  0  0  0  0
  -58.4867   64.9854  357.1822 C   0  0  0  0  0  0  0  0  0  0  0  0
  -57.5449   65.9908  357.8435 C   0  0  0  0  0  0  0  0  0  0  0  0
  -58.7744   63.7518  358.0717 C   0  0  0  0  0  0  0  0  0  0  0  0
  -57.7716   63.3908  359.1749 C   0  0  0  0  0  0  0  0  0  0  0  0
  -56.6194   62.4531  358.7993 C   0  0  0  0  0  0  0  0  0  0  0  0
  -55.6399   62.0965  359.9337 C   0  0  0  0  0  0  0  0  0  0  0  0
  -54.2678   62.7464  359.7443 C   0  0  0  0  0  0  0  0  0  0  0  0
  -55.4854   60.5758  360.0226 C   0  0  0  0  0  0  0  0  0  0  0  0
  1  6  4  0
  5  6  4  0
  6  7  1  0
  7  8  1  0
  2  9  4  0
  5  9  4  0
  8  9  1  0
  8 10  1  1
  7 11  1  0
 11 12  1  0
 12 13  1  0
 13 14  2  0
 13 15  1  0
  2 17  4  0
 16 17  4  0
 17 18  4  0
 18 19  4  0
  3 20  4  0
 16 20  4  0
 19 20  4  0
 18 21  1  0
 19 22  1  0
 22 23  2  0
  3 25  4  0
 24 25  4  0
 25 26  1  0
 26 27  2  0
  4 28  4  0
 24 28  4  0
 27 28  1  0
 26 29  1  0
 27 30  1  0
 30 31  1  0
  4 33  4  0
 32 33  4  0
 33 34  4  0
 34 35  4  0
  1 36  4  0
 32 36  4  0
 35 36  4  0
 34 37  1  0
 35 38  1  0
 38 39  2  0
  1 40  1  0
 38 40  1  0
 40 41  1  6
 41 42  2  0
 41 43  1  0
 43 44  1  0
 15 45  1  0
 45 46  1  0
 46 47  2  0
 47 48  1  0
 47 49  1  0
 49 50  1  0
 50 51  1  0
 51 52  1  0
 52 53  1  0
 52 54  1  0
 54 55  1  0
 55 56  1  0
 56 57  1  0
 57 58  1  0
 57 59  1  0
 59 60  1  0
 60 61  1  0
 61 62  1  0
 62 63  1  0
 62 64  1  0
M  END
