7OEO_V9Z_AAA_501
     RDKit          3D

 62 64  0  0  0  0  0  0  0  0999 V2000
    0.1762    2.5691   -4.8161 N   0  0  0  0  0  0  0  0  0  0  0  0
    0.8270    2.7147   -3.4998 C   0  0  0  0  0  0  0  0  0  0  0  0
   -3.6805    3.4964   -3.5646 C   0  0  0  0  0  0  0  0  0  0  0  0
   -2.2809    1.4561   -2.2705 C   0  0  0  0  0  0  0  0  0  0  0  0
   -2.8125    2.2812   -3.3510 N   0  0  0  0  0  0  0  0  0  0  0  0
   -2.2492    2.2495   -4.6769 C   0  0  0  0  0  0  0  0  0  0  0  0
   -2.7382    1.4848   -5.5564 O   0  0  0  0  0  0  0  0  0  0  0  0
   -1.1350    3.1874   -5.0473 C   0  0  0  0  0  0  0  0  0  0  0  0
   -0.0013    3.6069   -2.5409 C   0  0  2  0  0  0  0  0  0  0  0  0
   -1.3406    4.0218   -3.1306 C   0  0  0  0  0  0  0  0  0  0  0  0
   -2.4241    3.1232   -3.0788 C   0  0  0  0  0  0  0  0  0  0  0  0
   -3.8740    4.7726   -4.1004 C   0  0  0  0  0  0  0  0  0  0  0  0
   -2.8129    5.6805   -4.1466 C   0  0  0  0  0  0  0  0  0  0  0  0
   -1.5536    5.3131   -3.6619 C   0  0  0  0  0  0  0  0  0  0  0  0
    0.7568    4.8397   -2.0769 C   0  0  0  0  0  0  0  0  0  0  0  0
    0.8034    5.9828   -2.8984 C   0  0  0  0  0  0  0  0  0  0  0  0
    1.5171    7.1158   -2.4972 C   0  0  0  0  0  0  0  0  0  0  0  0
    2.1962    7.1206   -1.2766 C   0  0  0  0  0  0  0  0  0  0  0  0
    2.1623    5.9927   -0.4522 C   0  0  0  0  0  0  0  0  0  0  0  0
    1.4522    4.8560   -0.8487 C   0  0  0  0  0  0  0  0  0  0  0  0
    0.7655    1.7774   -5.8662 C   0  0  0  0  0  0  0  0  0  0  0  0
    1.2877    2.3591   -6.8558 O   0  0  0  0  0  0  0  0  0  0  0  0
    0.7836    0.2987   -5.8061 C   0  0  0  0  0  0  0  0  0  0  0  0
    1.9513   -0.4156   -6.1092 C   0  0  0  0  0  0  0  0  0  0  0  0
    1.9788   -1.8152   -6.0219 C   0  0  0  0  0  0  0  0  0  0  0  0
    3.2589   -2.5445   -6.3180 C   0  0  0  0  0  0  0  0  0  0  0  0
    0.8225   -2.5093   -5.6118 C   0  0  0  0  0  0  0  0  0  0  0  0
    0.8485   -3.8970   -5.4523 O   0  0  0  0  0  0  0  0  0  0  0  0
    2.0700   -4.5963   -5.2616 C   0  0  0  0  0  0  0  0  0  0  0  0
   -0.3723   -1.8048   -5.3745 C   0  0  0  0  0  0  0  0  0  0  0  0
   -1.6132   -2.5317   -4.9353 C   0  0  0  0  0  0  0  0  0  0  0  0
   -0.3818   -0.4052   -5.4685 C   0  0  0  0  0  0  0  0  0  0  0  0
    1.0187    1.7197   -3.0556 H   0  0  0  0  0  0  0  0  0  0  0  0
    1.8256    3.1852   -3.6378 H   0  0  0  0  0  0  0  0  0  0  0  0
   -4.5059    2.7954   -3.5226 H   0  0  0  0  0  0  0  0  0  0  0  0
   -2.3256    0.3815   -2.5626 H   0  0  0  0  0  0  0  0  0  0  0  0
   -1.2271    1.7482   -2.0619 H   0  0  0  0  0  0  0  0  0  0  0  0
   -2.8852    1.6036   -1.3445 H   0  0  0  0  0  0  0  0  0  0  0  0
   -3.6418    2.8887   -3.1548 H   0  0  0  0  0  0  0  0  0  0  0  0
   -1.2473    3.4700   -6.1172 H   0  0  0  0  0  0  0  0  0  0  0  0
   -1.2104    4.1269   -4.4582 H   0  0  0  0  0  0  0  0  0  0  0  0
   -0.2208    2.9673   -1.6570 H   0  0  0  0  0  0  0  0  0  0  0  0
   -2.2986    2.1301   -2.6586 H   0  0  0  0  0  0  0  0  0  0  0  0
   -4.8478    5.0579   -4.4776 H   0  0  0  0  0  0  0  0  0  0  0  0
   -2.9683    6.6708   -4.5581 H   0  0  0  0  0  0  0  0  0  0  0  0
   -0.7510    6.0363   -3.7061 H   0  0  0  0  0  0  0  0  0  0  0  0
    0.2853    6.0008   -3.8488 H   0  0  0  0  0  0  0  0  0  0  0  0
    1.5427    7.9929   -3.1313 H   0  0  0  0  0  0  0  0  0  0  0  0
    2.7446    8.0002   -0.9676 H   0  0  0  0  0  0  0  0  0  0  0  0
    2.6831    6.0017    0.4974 H   0  0  0  0  0  0  0  0  0  0  0  0
    1.4425    3.9967   -0.1915 H   0  0  0  0  0  0  0  0  0  0  0  0
    2.8423    0.1172   -6.4212 H   0  0  0  0  0  0  0  0  0  0  0  0
    3.8544   -2.6432   -5.3864 H   0  0  0  0  0  0  0  0  0  0  0  0
    3.8615   -1.9908   -7.0695 H   0  0  0  0  0  0  0  0  0  0  0  0
    3.0552   -3.5555   -6.7313 H   0  0  0  0  0  0  0  0  0  0  0  0
    1.8533   -5.6742   -5.1329 H   0  0  0  0  0  0  0  0  0  0  0  0
    2.5836   -4.2234   -4.3543 H   0  0  0  0  0  0  0  0  0  0  0  0
    2.7285   -4.4672   -6.1423 H   0  0  0  0  0  0  0  0  0  0  0  0
   -1.5337   -2.7805   -3.8515 H   0  0  0  0  0  0  0  0  0  0  0  0
   -1.7394   -3.4743   -5.5200 H   0  0  0  0  0  0  0  0  0  0  0  0
   -2.5220   -1.9060   -5.0946 H   0  0  0  0  0  0  0  0  0  0  0  0
   -1.2912    0.1395   -5.2406 H   0  0  0  0  0  0  0  0  0  0  0  0
  1  2  1  0
  4  5  1  0
  5  6  1  0
  6  7  2  0
  1  8  1  0
  6  8  1  0
  2  9  1  0
  9 10  1  0
  3 11  4  0
 10 11  4  0
  3 12  4  0
 12 13  4  0
 13 14  4  0
 10 14  4  0
  9 15  1  0
 15 16  4  0
 16 17  4  0
 17 18  4  0
 18 19  4  0
 15 20  4  0
 19 20  4  0
  1 21  1  0
 21 22  2  0
 21 23  1  0
 23 24  4  0
 24 25  4  0
 25 26  1  0
 25 27  4  0
 27 28  1  0
 28 29  1  0
 27 30  4  0
 30 31  1  0
 23 32  4  0
 30 32  4  0
  2 33  1  0
  2 34  1  0
  3 35  1  0
  4 36  1  0
  4 37  1  0
  4 38  1  0
  5 39  1  0
  8 40  1  0
  8 41  1  0
  9 42  1  6
 11 43  1  0
 12 44  1  0
 13 45  1  0
 14 46  1  0
 16 47  1  0
 17 48  1  0
 18 49  1  0
 19 50  1  0
 20 51  1  0
 24 52  1  0
 26 53  1  0
 26 54  1  0
 26 55  1  0
 29 56  1  0
 29 57  1  0
 29 58  1  0
 31 59  1  0
 31 60  1  0
 31 61  1  0
 32 62  1  0
M  END
