7OLT_58J_A_402
     RDKit          3D

 23 25  0  0  0  0  0  0  0  0999 V2000
  -38.4290   -7.4645  -17.8263 C   0  0  0  0  0  0  0  0  0  0  0  0
  -38.2874   -5.8183  -19.8119 C   0  0  0  0  0  0  0  0  0  0  0  0
  -38.9369   -5.5626  -20.8893 C   0  0  0  0  0  0  0  0  0  0  0  0
  -39.2397   -3.5727  -22.1798 C   0  0  0  0  0  0  0  0  0  0  0  0
  -41.9574   -3.4084  -21.6616 C   0  0  0  0  0  0  0  0  0  0  0  0
  -36.8039   -5.4985  -19.8358 C   0  0  0  0  0  0  0  0  0  0  0  0
  -34.4833   -8.9958  -17.2721 C   0  0  0  0  0  0  0  0  0  0  0  0
  -41.4743   -0.4362  -23.8515 C   0  0  0  0  0  0  0  0  0  0  0  0
  -36.4706   -4.5620  -20.5988 O   0  0  0  0  0  0  0  0  0  0  0  0
  -35.7682   -6.1625  -19.0766 N   0  0  0  0  0  0  0  0  0  0  0  0
  -35.8980   -7.3357  -18.2411 C   0  0  0  0  0  0  0  0  0  0  0  0
  -37.0337   -7.9040  -17.7020 C   0  0  0  0  0  0  0  0  0  0  0  0
  -34.6280   -7.8400  -18.0543 C   0  0  0  0  0  0  0  0  0  0  0  0
  -35.6306   -9.5787  -16.7227 C   0  0  0  0  0  0  0  0  0  0  0  0
  -36.8728   -9.0336  -16.9417 C   0  0  0  0  0  0  0  0  0  0  0  0
  -38.8916   -6.3894  -18.6727 N   0  0  0  0  0  0  0  0  0  0  0  0
  -40.1627   -5.8074  -18.2786 C   0  0  0  0  0  0  0  0  0  0  0  0
  -39.2478   -8.0761  -17.1437 O   0  0  0  0  0  0  0  0  0  0  0  0
  -39.8464   -4.5959  -21.3868 C   0  0  0  0  0  0  0  0  0  0  0  0
  -41.1761   -4.4358  -21.1834 C   0  0  0  0  0  0  0  0  0  0  0  0
  -41.3191   -2.4519  -22.4191 C   0  0  0  0  0  0  0  0  0  0  0  0
  -41.9959   -1.3683  -22.9567 O   0  0  0  0  0  0  0  0  0  0  0  0
  -39.9695   -2.5296  -22.6792 C   0  0  0  0  0  0  0  0  0  0  0  0
  2  3  2  0
  2  6  1  0
  6  9  2  0
  6 10  1  0
 10 11  1  0
 11 12  2  0
  1 12  1  0
  7 13  2  0
 11 13  1  0
  7 14  1  0
 14 15  2  0
 12 15  1  0
  2 16  1  0
  1 16  1  0
 16 17  1  0
  1 18  2  0
  3 19  1  0
  4 19  2  0
 19 20  1  0
  5 20  2  0
  5 21  1  0
 21 22  1  0
  8 22  1  0
  4 23  1  0
 21 23  2  0
M  END
$$$$
