1N46_PFA_A_462
     RDKit          3D

 48 50  0  0  0  0  0  0  0  0999 V2000
   12.4841   -4.7363   -7.9270 O   0  0  0  0  0  0  0  0  0  0  0  0
   13.0974   -5.7985   -7.6303 C   0  0  0  0  0  0  0  0  0  0  0  0
   13.0443   -6.2669   -6.3541 N   0  0  0  0  0  0  0  0  0  0  0  0
   13.7275   -7.3854   -5.9999 C   0  0  0  0  0  0  0  0  0  0  0  0
   13.6771   -7.8140   -4.8162 O   0  0  0  0  0  0  0  0  0  0  0  0
   13.8341   -6.4721   -8.5714 N   0  0  0  0  0  0  0  0  0  0  0  0
   14.5165   -7.5665   -8.2207 N   0  0  0  0  0  0  0  0  0  0  0  0
   14.4874   -8.0512   -6.9549 C   0  0  0  0  0  0  0  0  0  0  0  0
   13.9166   -6.0256   -9.9383 C   0  0  0  0  0  0  0  0  0  0  0  0
   15.1053   -6.2023  -10.6596 C   0  0  0  0  0  0  0  0  0  0  0  0
   15.1973   -5.7988  -11.9998 C   0  0  0  0  0  0  0  0  0  0  0  0
   16.4698   -6.0235  -12.7672 C   0  0  2  0  0  0  0  0  0  0  0  0
   12.8042   -5.4561  -10.5768 C   0  0  0  0  0  0  0  0  0  0  0  0
   12.8798   -5.0383  -11.9138 C   0  0  0  0  0  0  0  0  0  0  0  0
   11.6707   -4.4175  -12.5583 C   0  0  2  0  0  0  0  0  0  0  0  0
   14.0744   -5.2428  -12.6394 C   0  0  0  0  0  0  0  0  0  0  0  0
   14.1667   -4.8841  -13.9913 O   0  0  0  0  0  0  0  0  0  0  0  0
   13.5277   -5.5698  -15.0352 C   0  0  0  0  0  0  0  0  0  0  0  0
   13.7363   -5.1337  -16.3443 C   0  0  0  0  0  0  0  0  0  0  0  0
   12.7052   -6.6870  -14.8031 C   0  0  0  0  0  0  0  0  0  0  0  0
   12.0714   -7.3541  -15.8689 C   0  0  0  0  0  0  0  0  0  0  0  0
   11.1784   -8.5486  -15.5606 C   0  0  1  0  0  0  0  0  0  0  0  0
    9.8188   -8.4379  -16.2617 C   0  0  1  0  0  0  0  0  0  0  0  0
   11.8724   -9.8783  -15.8815 C   0  0  2  0  0  0  0  0  0  0  0  0
   12.2856   -6.8882  -17.1877 C   0  0  0  0  0  0  0  0  0  0  0  0
   13.1193   -5.7841  -17.4122 C   0  0  0  0  0  0  0  0  0  0  0  0
   11.6768   -7.5156  -18.2737 O   0  0  0  0  0  0  0  0  0  0  0  0
   12.4799   -5.7560   -5.6369 H   0  0  0  0  0  0  0  0  0  0  0  0
   15.0477   -8.9421   -6.7019 H   0  0  0  0  0  0  0  0  0  0  0  0
   15.9610   -6.6518  -10.1703 H   0  0  0  0  0  0  0  0  0  0  0  0
   16.7722   -5.0879  -13.2834 H   0  0  0  0  0  0  0  0  0  0  0  0
   16.3099   -6.8208  -13.5232 H   0  0  0  0  0  0  0  0  0  0  0  0
   17.3014   -6.3296  -12.0973 H   0  0  0  0  0  0  0  0  0  0  0  0
   11.8731   -5.3483  -10.0337 H   0  0  0  0  0  0  0  0  0  0  0  0
   11.8621   -3.3544  -12.8149 H   0  0  0  0  0  0  0  0  0  0  0  0
   10.8001   -4.4420  -11.8689 H   0  0  0  0  0  0  0  0  0  0  0  0
   11.4098   -4.9776  -13.4801 H   0  0  0  0  0  0  0  0  0  0  0  0
   14.3754   -4.2805  -16.5342 H   0  0  0  0  0  0  0  0  0  0  0  0
   12.5606   -7.0400  -13.7903 H   0  0  0  0  0  0  0  0  0  0  0  0
   10.9623   -8.5684  -14.4686 H   0  0  0  0  0  0  0  0  0  0  0  0
    9.9151   -7.9972  -17.2748 H   0  0  0  0  0  0  0  0  0  0  0  0
    9.3643   -9.4463  -16.3647 H   0  0  0  0  0  0  0  0  0  0  0  0
    9.1301   -7.8080  -15.6589 H   0  0  0  0  0  0  0  0  0  0  0  0
   11.4196  -10.6948  -15.2792 H   0  0  0  0  0  0  0  0  0  0  0  0
   12.9514   -9.8165  -15.6241 H   0  0  0  0  0  0  0  0  0  0  0  0
   11.7729  -10.1446  -16.9533 H   0  0  0  0  0  0  0  0  0  0  0  0
   13.2887   -5.4265  -18.4199 H   0  0  0  0  0  0  0  0  0  0  0  0
   11.8207   -7.1951  -19.2241 H   0  0  0  0  0  0  0  0  0  0  0  0
  1  2  2  0
  2  3  1  0
  3  4  1  0
  4  5  2  0
  2  6  1  0
  6  7  1  0
  4  8  1  0
  7  8  2  0
  6  9  1  0
  9 10  2  0
 10 11  1  0
 11 12  1  0
  9 13  1  0
 13 14  2  0
 14 15  1  0
 11 16  2  0
 14 16  1  0
 16 17  1  0
 17 18  1  0
 18 19  2  0
 18 20  1  0
 20 21  2  0
 21 22  1  0
 22 23  1  0
 22 24  1  0
 21 25  1  0
 19 26  1  0
 25 26  2  0
 25 27  1  0
  3 28  1  0
  8 29  1  0
 10 30  1  0
 12 31  1  6
 12 32  1  0
 12 33  1  0
 13 34  1  0
 15 35  1  6
 15 36  1  0
 15 37  1  0
 19 38  1  0
 20 39  1  0
 22 40  1  1
 23 41  1  6
 23 42  1  0
 23 43  1  0
 24 44  1  1
 24 45  1  0
 24 46  1  0
 26 47  1  0
 27 48  1  0
M  END
