8BOM_QU6_A_1001
     RDKit          3D

 58 62  0  0  0  0  0  0  0  0999 V2000
  -82.3680  -21.1411   87.6324 N   0  0  0  0  0  0  0  0  0  0  0  0
  -78.9789  -18.3509   82.0851 N   0  0  0  0  0  0  0  0  0  0  0  0
  -85.6010  -19.4048   87.6033 C   0  0  0  0  0  0  0  0  0  0  0  0
  -86.0710  -18.1546   88.2742 C   0  0  0  0  0  0  0  0  0  0  0  0
  -87.4389  -17.4814   90.2169 C   0  0  0  0  0  0  0  0  0  0  0  0
  -87.4274  -16.0921   90.1134 C   0  0  0  0  0  0  0  0  0  0  0  0
  -88.4220  -15.3477   90.7334 C   0  0  0  0  0  0  0  0  0  0  0  0
  -89.4268  -15.9827   91.4526 C   0  0  0  0  0  0  0  0  0  0  0  0
  -84.2673  -19.6968   87.8545 C   0  0  0  0  0  0  0  0  0  0  0  0
  -81.2172  -20.5362   87.2334 C   0  0  0  0  0  0  0  0  0  0  0  0
  -80.0862  -19.2923   84.0122 C   0  0  0  0  0  0  0  0  0  0  0  0
  -80.1103  -18.5093   81.3902 C   0  0  0  0  0  0  0  0  0  0  0  0
  -78.9846  -18.7380   83.3673 C   0  0  0  0  0  0  0  0  0  0  0  0
  -78.8717  -20.1825   87.2959 C   0  0  0  0  0  0  0  0  0  0  0  0
  -79.5131  -21.0112   89.2525 C   0  0  0  0  0  0  0  0  0  0  0  0
  -86.4386  -18.2418   89.5669 N   0  0  0  0  0  0  0  0  0  0  0  0
  -83.9105  -23.1858   86.3531 C   0  0  0  0  0  0  0  0  0  0  0  0
  -88.3470  -13.9810   90.5663 O   0  0  0  0  0  0  0  0  0  0  0  0
  -84.4850  -21.8568   86.7844 C   0  0  0  0  0  0  0  0  0  0  0  0
  -89.3872  -17.3580   91.6059 C   0  0  0  0  0  0  0  0  0  0  0  0
  -88.3741  -18.1027   91.0287 C   0  0  0  0  0  0  0  0  0  0  0  0
  -83.7081  -20.9225   87.5011 C   0  0  0  0  0  0  0  0  0  0  0  0
  -80.0443  -19.6946   85.4339 C   0  0  0  0  0  0  0  0  0  0  0  0
  -81.2439  -19.4398   83.2552 C   0  0  0  0  0  0  0  0  0  0  0  0
  -81.2606  -19.0457   81.9302 C   0  0  0  0  0  0  0  0  0  0  0  0
  -85.7995  -21.5104   86.4656 C   0  0  0  0  0  0  0  0  0  0  0  0
  -79.9991  -20.6505   87.9750 C   0  0  0  0  0  0  0  0  0  0  0  0
  -76.4383  -19.9052   87.9135 C   0  0  0  0  0  0  0  0  0  0  0  0
  -86.3603  -20.3154   86.8841 C   0  0  0  0  0  0  0  0  0  0  0  0
  -89.1267  -13.4088   89.5037 C   0  0  0  0  0  0  0  0  0  0  0  0
  -81.2199  -20.0531   85.9864 N   0  0  0  0  0  0  0  0  0  0  0  0
  -78.8495  -19.7094   86.0463 N   0  0  0  0  0  0  0  0  0  0  0  0
  -78.2209  -20.7759   89.3585 N   0  0  0  0  0  0  0  0  0  0  0  0
  -77.8275  -20.2708   88.1518 N   0  0  0  0  0  4  0  0  0  0  0  0
  -86.1512  -17.1073   87.6401 O   0  0  0  0  0  0  0  0  0  0  0  0
  -82.1849  -21.9543   88.1562 H   0  0  0  0  0  0  0  0  0  0  0  0
  -86.6829  -15.6183   89.5782 H   0  0  0  0  0  0  0  0  0  0  0  0
  -90.1957  -15.4343   91.8687 H   0  0  0  0  0  0  0  0  0  0  0  0
  -83.6752  -18.9878   88.3147 H   0  0  0  0  0  0  0  0  0  0  0  0
  -80.1235  -18.2157   80.4009 H   0  0  0  0  0  0  0  0  0  0  0  0
  -78.1163  -18.6174   83.9120 H   0  0  0  0  0  0  0  0  0  0  0  0
  -80.0959  -21.4083   90.0060 H   0  0  0  0  0  0  0  0  0  0  0  0
  -85.9612  -18.9040   90.1172 H   0  0  0  0  0  0  0  0  0  0  0  0
  -82.8980  -23.2631   86.6905 H   0  0  0  0  0  0  0  0  0  0  0  0
  -84.4894  -23.9792   86.7775 H   0  0  0  0  0  0  0  0  0  0  0  0
  -83.9370  -23.2563   85.2858 H   0  0  0  0  0  0  0  0  0  0  0  0
  -90.1204  -17.8322   92.1560 H   0  0  0  0  0  0  0  0  0  0  0  0
  -88.3151  -19.1183   91.2024 H   0  0  0  0  0  0  0  0  0  0  0  0
  -82.0915  -19.8440   83.6832 H   0  0  0  0  0  0  0  0  0  0  0  0
  -82.1135  -19.1503   81.3587 H   0  0  0  0  0  0  0  0  0  0  0  0
  -86.3683  -22.1622   85.9030 H   0  0  0  0  0  0  0  0  0  0  0  0
  -75.8626  -20.0975   88.7947 H   0  0  0  0  0  0  0  0  0  0  0  0
  -76.0513  -20.4845   87.1013 H   0  0  0  0  0  0  0  0  0  0  0  0
  -76.3800  -18.8651   87.6692 H   0  0  0  0  0  0  0  0  0  0  0  0
  -87.3450  -20.1022   86.6604 H   0  0  0  0  0  0  0  0  0  0  0  0
  -88.9791  -12.3492   89.4837 H   0  0  0  0  0  0  0  0  0  0  0  0
  -88.8192  -13.8294   88.5691 H   0  0  0  0  0  0  0  0  0  0  0  0
  -90.1626  -13.6215   89.6670 H   0  0  0  0  0  0  0  0  0  0  0  0
  3  4  1  0
  5  6  4  0
  6  7  4  0
  7  8  4  0
  3  9  4  0
  1 10  1  0
  2 12  4  0
 11 13  4  0
  2 13  4  0
  4 16  1  0
  5 16  1  0
  7 18  1  0
 17 19  1  0
  8 20  4  0
  5 21  4  0
 20 21  4  0
  1 22  1  0
 19 22  4  0
  9 22  4  0
 11 23  1  0
 11 24  4  0
 24 25  4  0
 12 25  4  0
 19 26  4  0
 15 27  4  0
 14 27  4  0
 10 27  4  0
 26 29  4  0
  3 29  4  0
 18 30  1  0
 10 31  4  0
 23 31  4  0
 14 32  4  0
 23 32  4  0
 15 33  4  0
 33 34  4  0
 28 34  1  0
 14 34  4  0
  4 35  2  0
  1 36  1  0
  6 37  1  0
  8 38  1  0
  9 39  1  0
 12 40  1  0
 13 41  1  0
 15 42  1  0
 16 43  1  0
 17 44  1  0
 17 45  1  0
 17 46  1  0
 20 47  1  0
 21 48  1  0
 24 49  1  0
 25 50  1  0
 26 51  1  0
 28 52  1  0
 28 53  1  0
 28 54  1  0
 29 55  1  0
 30 56  1  0
 30 57  1  0
 30 58  1  0
M  CHG  1  34   1
M  END
