8BPL_CP_A_2401
     RDKit          3D

  8  7  0  0  0  0  0  0  0  0999 V2000
  -45.0688   21.6497   12.1991 N   0  0  0  0  0  0  0  0  0  0  0  0
  -46.3281   21.4693   12.8220 C   0  0  0  0  0  0  0  0  0  0  0  0
  -47.0827   20.5203   12.4832 O   0  0  0  0  0  0  0  0  0  0  0  0
  -46.6995   22.3716   13.8147 O   0  0  0  0  0  0  0  0  0  0  0  0
  -48.2274   22.2171   14.5885 P   0  0  2  0  0  5  0  0  0  0  0  0
  -48.4164   20.8002   15.0895 O   0  0  0  0  0  0  0  0  0  0  0  0
  -49.4961   22.6234   13.5715 O   0  0  0  0  0  0  0  0  0  0  0  0
  -48.2198   23.3088   15.9068 O   0  0  0  0  0  0  0  0  0  0  0  0
  1  2  1  0
  2  3  2  0
  2  4  1  0
  4  5  1  0
  5  6  2  0
  5  7  1  6
  5  8  1  0
M  END
$$$$
