7K41_VUA_A_2602
     RDKit          3D

 46 48  0  0  0  0  0  0  0  0999 V2000
  -10.7625  -12.4347    7.1502 N   0  0  0  0  0  0  0  0  0  0  0  0
   -8.9534   -9.0301    8.4922 N   0  0  0  0  0  0  0  0  0  0  0  0
  -13.4623  -12.4998    6.4817 C   0  0  0  0  0  0  0  0  0  0  0  0
  -11.0902  -12.6983    6.5641 C   0  0  0  0  0  0  0  0  0  0  0  0
  -10.2409  -10.1455    6.8128 C   0  0  0  0  0  0  0  0  0  0  0  0
  -10.8213  -11.3221    6.4149 C   0  0  0  0  0  0  0  0  0  0  0  0
  -12.3260  -12.9432    7.1352 C   0  0  0  0  0  0  0  0  0  0  0  0
  -10.1158  -12.4011    8.3157 C   0  0  0  0  0  0  0  0  0  0  0  0
   -7.7849   -8.3985    7.8776 C   0  0  0  0  0  0  0  0  0  0  0  0
   -7.1541   -7.7615   10.2319 C   0  0  1  0  0  0  0  0  0  0  0  0
  -12.4463  -13.6945    8.4279 C   0  0  0  0  0  0  0  0  0  0  0  0
  -12.1041  -11.5908    4.7112 C   0  0  0  0  0  0  0  0  0  0  0  0
  -13.3523  -11.8265    5.2794 C   0  0  0  0  0  0  0  0  0  0  0  0
  -10.9668  -12.0301    5.3596 C   0  0  0  0  0  0  0  0  0  0  0  0
   -9.5751  -10.2004    8.0186 C   0  0  0  0  0  0  0  0  0  0  0  0
   -6.6806   -8.3388    8.9115 C   0  0  0  0  0  0  0  0  0  0  0  0
   -8.3724   -8.4977   10.7379 C   0  0  0  0  0  0  0  0  0  0  0  0
   -9.4610   -8.3671    9.6824 C   0  0  0  0  0  0  0  0  0  0  0  0
   -6.0816   -7.9022   11.2602 C   0  0  0  0  0  0  0  0  0  0  0  0
  -11.1682  -14.5335    8.6630 C   0  0  0  0  0  0  0  0  0  0  0  0
   -9.4945  -11.3019    8.7736 N   0  0  0  0  0  0  0  0  0  0  0  0
  -10.1357  -13.5973    9.0354 N   0  0  0  0  0  0  0  0  0  0  0  0
  -14.3932  -12.6721    6.8925 H   0  0  0  0  0  0  0  0  0  0  0  0
  -10.2389  -13.0225    7.0490 H   0  0  0  0  0  0  0  0  0  0  0  0
  -10.2982   -9.2819    6.2508 H   0  0  0  0  0  0  0  0  0  0  0  0
  -11.3225  -11.3486    5.5132 H   0  0  0  0  0  0  0  0  0  0  0  0
   -7.4623   -8.9751    7.0360 H   0  0  0  0  0  0  0  0  0  0  0  0
   -8.0312   -7.4126    7.5426 H   0  0  0  0  0  0  0  0  0  0  0  0
   -7.3942   -6.7318   10.0676 H   0  0  0  0  0  0  0  0  0  0  0  0
  -12.5694  -13.0004    9.2329 H   0  0  0  0  0  0  0  0  0  0  0  0
  -13.2945  -14.3453    8.3825 H   0  0  0  0  0  0  0  0  0  0  0  0
  -12.0289  -11.0911    3.8115 H   0  0  0  0  0  0  0  0  0  0  0  0
  -14.2035  -11.4956    4.7989 H   0  0  0  0  0  0  0  0  0  0  0  0
  -10.0347  -11.8617    4.9498 H   0  0  0  0  0  0  0  0  0  0  0  0
   -5.8887   -7.7266    8.5332 H   0  0  0  0  0  0  0  0  0  0  0  0
   -6.3501   -9.3401    9.0933 H   0  0  0  0  0  0  0  0  0  0  0  0
   -8.1365   -9.5298   10.8929 H   0  0  0  0  0  0  0  0  0  0  0  0
   -8.7007   -8.0853   11.6690 H   0  0  0  0  0  0  0  0  0  0  0  0
  -10.3602   -8.8414   10.0163 H   0  0  0  0  0  0  0  0  0  0  0  0
   -9.6944   -7.3412    9.4877 H   0  0  0  0  0  0  0  0  0  0  0  0
   -5.8606   -8.9391   11.4054 H   0  0  0  0  0  0  0  0  0  0  0  0
   -5.2008   -7.3928   10.9289 H   0  0  0  0  0  0  0  0  0  0  0  0
   -6.4144   -7.4757   12.1834 H   0  0  0  0  0  0  0  0  0  0  0  0
  -11.3284  -15.2413    9.4493 H   0  0  0  0  0  0  0  0  0  0  0  0
  -10.8972  -15.0852    7.7871 H   0  0  0  0  0  0  0  0  0  0  0  0
   -9.4870  -13.7895    9.7507 H   0  0  0  0  0  0  0  0  0  0  0  0
  5  6  4  0
  1  6  4  0
  4  7  4  0
  3  7  4  0
  1  8  4  0
  2  9  1  0
  7 11  1  0
 12 13  4  0
  3 13  4  0
  4 14  4  0
 12 14  4  0
  2 15  1  0
  5 15  4  0
 10 16  1  0
  9 16  1  0
 10 17  1  0
 17 18  1  0
  2 18  1  0
 10 19  1  0
 11 20  1  0
 15 21  4  0
  8 21  4  0
 20 22  1  0
  8 22  1  0
  3 23  1  0
  4 24  1  0
  5 25  1  0
  6 26  1  0
  9 27  1  0
  9 28  1  0
 10 29  1  1
 11 30  1  0
 11 31  1  0
 12 32  1  0
 13 33  1  0
 14 34  1  0
 16 35  1  0
 16 36  1  0
 17 37  1  0
 17 38  1  0
 18 39  1  0
 18 40  1  0
 19 41  1  0
 19 42  1  0
 19 43  1  0
 20 44  1  0
 20 45  1  0
 22 46  1  0
M  END
