7YZU_DO7_A_401
     RDKit          3D

 16 16  0  0  0  0  0  0  0  0999 V2000
   11.4197  -20.6646  -19.2925 C   0  0  0  0  0  0  0  0  0  0  0  0
    9.7498  -21.4295  -21.0086 C   0  0  1  0  0  0  0  0  0  0  0  0
    8.5076  -22.2974  -21.0107 C   0  0  1  0  0  0  0  0  0  0  0  0
    8.7388  -23.6223  -20.2883 C   0  0  2  0  0  0  0  0  0  0  0  0
   10.5994  -24.3942  -17.3009 C   0  0  0  0  0  0  0  0  0  0  0  0
    9.2731  -23.4155  -18.9042 C   0  0  1  0  0  0  0  0  0  0  0  0
   10.5903  -21.7918  -19.8241 C   0  0  2  0  0  0  0  0  0  0  0  0
   10.3934  -24.2437  -18.6840 O   0  0  0  0  0  0  0  0  0  0  0  0
    9.6922  -22.1125  -18.7915 O   0  0  0  0  0  0  0  0  0  0  0  0
   13.0992  -21.0006  -18.9927 S   0  0  2  0  0  6  0  0  0  0  0  0
   13.9757  -19.8053  -18.9461 O   0  0  0  0  0  0  0  0  0  0  0  0
   13.6019  -22.0768  -19.9158 O   0  0  0  0  0  0  0  0  0  0  0  0
   13.1848  -21.6866  -17.4375 O   0  0  0  0  0  0  0  0  0  0  0  0
   10.4476  -21.8158  -22.1739 O   0  0  0  0  0  0  0  0  0  0  0  0
    7.4068  -21.6329  -20.4854 O   0  0  0  0  0  0  0  0  0  0  0  0
    9.6235  -24.3571  -21.0837 O   0  0  0  0  0  0  0  0  0  0  0  0
  2  3  1  0
  3  4  1  0
  4  6  1  0
  7  1  1  0
  2  7  1  0
  6  8  1  6
  5  8  1  1
  7  9  1  1
  6  9  1  0
  1 10  1  6
 10 11  2  0
 10 12  2  0
 10 13  1  1
  2 14  1  6
  3 15  1  1
  4 16  1  6
M  END
$$$$
