
     RDKit          3D

 22 23  0  0  0  0  0  0  0  0999 V2000
   28.2207   -5.5913    1.4882 C   0  0  0  0  0  0  0  0  0  0  0  0
   27.6432   -4.5350    2.2200 C   0  0  0  0  0  0  0  0  0  0  0  0
   26.5162   -4.8141    3.0196 C   0  0  0  0  0  0  0  0  0  0  0  0
   26.0566   -6.1290    3.0402 C   0  0  0  0  0  0  0  0  0  0  0  0
   27.6801   -6.8756    1.5645 C   0  0  0  0  0  0  0  0  0  0  0  0
   27.4791   -2.2603    1.1543 N   0  0  0  0  0  4  0  0  0  0  0  0
   28.1459   -0.9767    0.9221 C   0  0  0  0  0  0  0  0  0  0  0  0
   29.5224   -0.7826    0.7660 C   0  0  0  0  0  0  0  0  0  0  0  0
   30.4996   -1.6913    0.8120 O   0  0  0  0  0  0  0  0  0  0  0  0
   27.6226    0.2862    0.8419 C   0  0  0  0  0  0  0  0  0  0  0  0
   28.6399    1.1714    0.6117 O   0  0  0  0  0  0  0  0  0  0  0  0
   29.8584    0.4828    0.5560 N   0  0  0  0  0  0  0  0  0  0  0  0
   28.2549   -8.0434    0.8200 C   0  0  0  0  0  0  0  0  0  0  0  0
   28.2337   -3.1515    2.0847 C   0  0  0  0  0  0  0  0  0  0  0  0
   25.8265   -3.8085    3.9017 C   0  0  0  0  0  0  0  0  0  0  0  0
   26.6055   -7.1407    2.3350 N   0  0  0  0  0  0  0  0  0  0  0  0
   29.3381   -5.2980    0.7442 O   0  0  0  0  0  0  0  0  0  0  0  0
   24.1674   -0.6203    3.5372 O   0  0  0  0  0  0  0  0  0  0  0  0
   24.0668   -1.8128    1.3743 O   0  0  0  0  0  0  0  0  0  0  0  0
   23.1219   -3.0196    3.4366 O   0  0  0  0  0  0  0  0  0  0  0  0
   25.6629   -2.6295    3.1402 O   0  0  0  0  0  0  0  0  0  0  0  0
   24.1751   -2.0897    2.9359 P   0  0  0  0  0  5  0  0  0  0  0  0
  1  2  4  0
  2  3  4  0
  3  4  4  0
  1  5  4  0
  6  7  1  0
  7  8  4  0
  8  9  1  0
  7 10  4  0
 10 11  4  0
  8 12  4  0
 11 12  4  0
  5 13  1  0
  6 14  1  0
  2 14  1  0
  3 15  1  0
  5 16  4  0
  4 16  4  0
  1 17  1  0
 15 21  1  0
 20 22  2  0
 21 22  1  0
 18 22  1  0
 19 22  1  0
M  CHG  1   6   1
M  END
