1JD0_AZM_B_2401
     RDKit          3D

 19 19  0  0  0  0  0  0  0  0999 V2000
    5.3668    0.4815   24.5963 C   0  0  0  0  0  0  0  0  0  0  0  0
    4.6910    2.7540   24.2341 C   0  0  0  0  0  0  0  0  0  0  0  0
    5.5017    5.1702   24.3016 C   0  0  0  0  0  0  0  0  0  0  0  0
    5.1895    6.6042   24.0198 C   0  0  2  0  0  0  0  0  0  0  0  0
    7.4833   -1.2744   23.8544 N   0  0  0  0  0  0  0  0  0  0  0  0
    3.7060    1.8585   23.9993 N   0  0  0  0  0  0  0  0  0  0  0  0
    4.0817    0.5963   24.1989 N   0  0  0  0  0  0  0  0  0  0  0  0
    4.4941    4.1687   24.0882 N   0  0  0  0  0  0  0  0  0  0  0  0
    5.1634   -2.1675   24.7363 O   0  0  0  0  0  0  0  0  0  0  0  0
    6.6345   -1.0654   26.3525 O   0  0  0  0  0  0  0  0  0  0  0  0
    6.6587    4.8567   24.6893 O   0  0  0  0  0  0  0  0  0  0  0  0
    6.1493   -1.0501   24.9306 S   0  0  2  0  0  6  0  0  0  0  0  0
    6.1148    1.9835   24.7198 S   0  0  0  0  0  0  0  0  0  0  0  0
    4.4854    6.9923   24.7852 H   0  0  0  0  0  0  0  0  0  0  0  0
    4.7230    6.6905   23.0166 H   0  0  0  0  0  0  0  0  0  0  0  0
    6.1153    7.2176   24.0436 H   0  0  0  0  0  0  0  0  0  0  0  0
    8.3185   -1.4892   24.4440 H   0  0  0  0  0  0  0  0  0  0  0  0
    7.2825   -2.1320   23.2927 H   0  0  0  0  0  0  0  0  0  0  0  0
    3.5412    4.4901   23.8038 H   0  0  0  0  0  0  0  0  0  0  0  0
  3  4  1  0
  2  6  2  0
  1  7  2  0
  6  7  1  0
  2  8  1  0
  3  8  1  0
  3 11  2  0
  1 12  1  0
 12  5  1  6
  9 12  2  0
 10 12  2  0
  1 13  1  0
  2 13  1  0
  4 14  1  1
  4 15  1  0
  4 16  1  0
  5 17  1  0
  5 18  1  0
  8 19  1  0
M  END
