7WN5_JGL_B_501
     RDKit          3D

 37 41  0  0  0  0  0  0  0  0999 V2000
  -18.4717    6.6673  -14.8920 F   0  0  0  0  0  0  0  0  0  0  0  0
  -17.3963    7.4854  -14.9083 C   0  0  0  0  0  0  0  0  0  0  0  0
  -16.3351    7.1347  -14.0955 C   0  0  0  0  0  0  0  0  0  0  0  0
  -15.2068    7.9249  -14.0760 C   0  0  0  0  0  0  0  0  0  0  0  0
  -14.1740    7.5613  -13.2687 F   0  0  0  0  0  0  0  0  0  0  0  0
  -15.1728    9.0443  -14.8710 C   0  0  0  0  0  0  0  0  0  0  0  0
  -16.1982    9.4292  -15.6896 C   0  0  0  0  0  0  0  0  0  0  0  0
  -17.3367    8.6284  -15.7066 C   0  0  0  0  0  0  0  0  0  0  0  0
  -18.4011    8.9756  -16.5195 O   0  0  0  0  0  0  0  0  0  0  0  0
  -18.2566    9.2147  -17.8732 C   0  0  0  0  0  0  0  0  0  0  0  0
  -17.0814    9.0433  -18.5696 C   0  0  0  0  0  0  0  0  0  0  0  0
  -17.0502    9.3144  -19.9254 C   0  0  0  0  0  0  0  0  0  0  0  0
  -18.1381    9.7501  -20.6283 C   0  0  0  0  0  0  0  0  0  0  0  0
  -18.1849   10.0562  -21.9991 N   0  0  0  0  0  0  0  0  0  0  0  0
  -18.5952   11.5429  -22.7062 S   0  0  2  0  0  0  0  0  0  0  0  0
  -19.8284   12.1252  -22.0246 O   0  0  0  0  0  0  0  0  0  0  0  0
  -18.9055   11.3667  -24.1925 O   0  0  0  0  0  0  0  0  0  0  0  0
  -17.3350   12.7522  -22.6068 C   0  0  0  0  0  0  0  0  0  0  0  0
  -17.4370   13.6362  -21.3858 C   0  0  0  0  0  0  0  0  0  0  0  0
  -19.3203    9.9175  -19.9039 C   0  0  0  0  0  0  0  0  0  0  0  0
  -19.3945    9.6590  -18.5516 C   0  0  0  0  0  0  0  0  0  0  0  0
  -20.6583    9.8455  -17.8141 C   0  0  0  0  0  0  0  0  0  0  0  0
  -21.8646    9.4355  -18.3635 C   0  0  0  0  0  0  0  0  0  0  0  0
  -22.9797    9.6378  -17.6324 N   0  0  0  0  0  0  0  0  0  0  0  0
  -24.2437    9.2071  -18.2104 C   0  0  0  0  0  0  0  0  0  0  0  0
  -22.9340   10.2188  -16.4062 C   0  0  0  0  0  0  0  0  0  0  0  0
  -23.9887   10.3972  -15.7424 O   0  0  0  0  0  0  0  0  0  0  0  0
  -21.7531   10.6300  -15.8476 C   0  0  0  0  0  0  0  0  0  0  0  0
  -21.3789   11.2267  -14.6764 C   0  0  0  0  0  0  0  0  0  0  0  0
  -20.5979   10.4354  -16.5731 C   0  0  0  0  0  0  0  0  0  0  0  0
  -19.6122   10.8912  -15.8668 O   0  0  0  0  0  0  0  0  0  0  0  0
  -20.0036   11.3820  -14.7153 C   0  0  0  0  0  0  0  0  0  0  0  0
  -19.1152   11.9632  -13.7157 C   0  0  0  0  0  0  0  0  0  0  0  0
  -17.8015   12.3453  -13.8827 C   0  0  0  0  0  0  0  0  0  0  0  0
  -17.3326   12.8383  -12.7131 N   0  0  0  0  0  0  0  0  0  0  0  0
  -18.3341   12.7698  -11.8177 C   0  0  0  0  0  0  0  0  0  0  0  0
  -19.4208   12.2401  -12.4157 N   0  0  0  0  0  0  0  0  0  0  0  0
  1  2  1  0
  2  3  2  0
  3  4  1  0
  4  5  1  0
  4  6  2  0
  6  7  1  0
  2  8  1  0
  7  8  2  0
  8  9  1  0
  9 10  1  0
 10 11  2  0
 11 12  1  0
 12 13  2  0
 13 14  1  0
 14 15  1  0
 15 16  2  0
 15 17  2  0
 15 18  1  6
 18 19  1  0
 13 20  1  0
 10 21  1  0
 20 21  2  0
 21 22  1  0
 22 23  2  0
 23 24  1  0
 24 25  1  0
 24 26  1  0
 26 27  2  0
 26 28  1  0
 28 29  1  0
 28 30  2  0
 22 30  1  0
 30 31  1  0
 29 32  2  0
 31 32  1  0
 32 33  1  0
 33 34  2  0
 34 35  1  0
 35 36  2  0
 36 37  1  0
 33 37  1  0
M  END
$$$$
