1Z95_198_A_501
     RDKit          3D

 29 30  0  0  0  0  0  0  0  0999 V2000
   28.6331    0.2301    2.9456 C   0  0  0  0  0  0  0  0  0  0  0  0
   27.3325    0.4576    2.5036 C   0  0  0  0  0  0  0  0  0  0  0  0
   26.2928   -0.3955    2.8256 C   0  0  0  0  0  0  0  0  0  0  0  0
   25.0383   -0.1701    2.3953 F   0  0  0  0  0  0  0  0  0  0  0  0
   26.5351   -1.5099    3.6074 C   0  0  0  0  0  0  0  0  0  0  0  0
   27.8245   -1.7317    4.0432 C   0  0  0  0  0  0  0  0  0  0  0  0
   28.8715   -0.8796    3.7235 C   0  0  0  0  0  0  0  0  0  0  0  0
   30.4820   -1.2565    4.3330 S   0  0  1  0  0  0  0  0  0  0  0  0
   30.3477   -2.3857    5.3092 O   0  0  0  0  0  0  0  0  0  0  0  0
   31.3188   -1.6205    3.1664 O   0  0  0  0  0  0  0  0  0  0  0  0
   31.0855    0.2137    5.1461 C   0  0  0  0  0  0  0  0  0  0  0  0
   30.1733    0.5353    6.3121 C   0  0  1  0  0  0  0  0  0  0  0  0
   29.5155   -0.6430    6.6946 O   0  0  0  0  0  0  0  0  0  0  0  0
   30.9579    0.9939    7.5185 C   0  0  0  0  0  0  0  0  0  0  0  0
   29.2157    1.6221    5.9741 C   0  0  0  0  0  0  0  0  0  0  0  0
   29.6922    2.7100    5.5483 O   0  0  0  0  0  0  0  0  0  0  0  0
   27.8105    1.4087    6.1375 N   0  0  0  0  0  0  0  0  0  0  0  0
   26.9055    2.4758    5.8363 C   0  0  0  0  0  0  0  0  0  0  0  0
   27.4655    3.6279    5.2875 C   0  0  0  0  0  0  0  0  0  0  0  0
   25.5480    2.3880    6.0695 C   0  0  0  0  0  0  0  0  0  0  0  0
   24.7278    3.4537    5.7565 C   0  0  0  0  0  0  0  0  0  0  0  0
   25.2878    4.5938    5.2126 C   0  0  0  0  0  0  0  0  0  0  0  0
   24.4258    5.6761    4.8990 C   0  0  0  0  0  0  0  0  0  0  0  0
   23.7360    6.5517    4.6272 N   0  0  0  0  0  0  0  0  0  0  0  0
   26.6493    4.6760    4.9812 C   0  0  0  0  0  0  0  0  0  0  0  0
   27.2365    5.9080    4.3960 C   0  0  1  0  0  0  0  0  0  0  0  0
   26.5907    6.3150    3.2694 F   0  0  0  0  0  0  0  0  0  0  0  0
   27.1382    6.8864    5.3582 F   0  0  0  0  0  0  0  0  0  0  0  0
   28.5717    5.6438    4.1706 F   0  0  0  0  0  0  0  0  0  0  0  0
  1  2  2  0
  2  3  1  0
  3  4  1  0
  3  5  2  0
  5  6  1  0
  1  7  1  0
  6  7  2  0
  7  8  1  0
  8  9  2  0
  8 10  2  0
  8 11  1  1
 11 12  1  0
 12 13  1  0
 12 14  1  1
 12 15  1  0
 15 16  2  0
 15 17  1  0
 17 18  1  0
 18 19  2  0
 18 20  1  0
 20 21  2  0
 21 22  1  0
 22 23  1  0
 23 24  3  0
 19 25  1  0
 22 25  2  0
 25 26  1  0
 26 27  1  6
 26 28  1  0
 26 29  1  0
M  END
$$$$
