1Z95_198_A_501
     RDKit          3D

 29 30  0  0  0  0  0  0  0  0999 V2000
   30.9043    0.6601    9.8507 C   0  0  0  0  0  0  0  0  0  0  0  0
   30.6446    0.6255   11.2183 C   0  0  0  0  0  0  0  0  0  0  0  0
   29.6686   -0.1941   11.7550 C   0  0  0  0  0  0  0  0  0  0  0  0
   29.4226   -0.2229   13.0773 F   0  0  0  0  0  0  0  0  0  0  0  0
   28.9211   -1.0080   10.9240 C   0  0  0  0  0  0  0  0  0  0  0  0
   29.1813   -0.9708    9.5702 C   0  0  0  0  0  0  0  0  0  0  0  0
   30.1589   -0.1508    9.0259 C   0  0  0  0  0  0  0  0  0  0  0  0
   30.4098   -0.1807    7.2813 S   0  0  1  0  0  0  0  0  0  0  0  0
   31.8605   -0.4644    7.0339 O   0  0  0  0  0  0  0  0  0  0  0  0
   29.5301   -1.2367    6.7294 O   0  0  0  0  0  0  0  0  0  0  0  0
   29.9678    1.4359    6.6664 C   0  0  0  0  0  0  0  0  0  0  0  0
   29.5949    1.3157    5.2031 C   0  0  1  0  0  0  0  0  0  0  0  0
   30.7270    1.6214    4.4335 O   0  0  0  0  0  0  0  0  0  0  0  0
   29.2081   -0.0998    4.8450 C   0  0  0  0  0  0  0  0  0  0  0  0
   28.4379    2.1853    4.8601 C   0  0  0  0  0  0  0  0  0  0  0  0
   27.2904    1.6611    4.8652 O   0  0  0  0  0  0  0  0  0  0  0  0
   28.6534    3.5632    4.5407 N   0  0  0  0  0  0  0  0  0  0  0  0
   27.5399    4.4622    4.5531 C   0  0  0  0  0  0  0  0  0  0  0  0
   26.2927    3.9013    4.8218 C   0  0  0  0  0  0  0  0  0  0  0  0
   27.6733    5.8150    4.3144 C   0  0  0  0  0  0  0  0  0  0  0  0
   26.5588    6.6295    4.3407 C   0  0  0  0  0  0  0  0  0  0  0  0
   25.3244    6.0687    4.6075 C   0  0  0  0  0  0  0  0  0  0  0  0
   24.1934    6.9249    4.6293 C   0  0  0  0  0  0  0  0  0  0  0  0
   23.2730    7.6098    4.6298 N   0  0  0  0  0  0  0  0  0  0  0  0
   25.1969    4.7120    4.8461 C   0  0  0  0  0  0  0  0  0  0  0  0
   23.8636    4.1238    5.1314 C   0  0  1  0  0  0  0  0  0  0  0  0
   23.3395    4.5554    6.3108 F   0  0  0  0  0  0  0  0  0  0  0  0
   23.0373    4.5016    4.0983 F   0  0  0  0  0  0  0  0  0  0  0  0
   24.0173    2.7532    5.0944 F   0  0  0  0  0  0  0  0  0  0  0  0
  1  2  2  0
  2  3  1  0
  3  4  1  0
  3  5  2  0
  5  6  1  0
  1  7  1  0
  6  7  2  0
  7  8  1  0
  8  9  2  0
  8 10  2  0
  8 11  1  6
 11 12  1  0
 12 13  1  0
 12 14  1  1
 12 15  1  0
 15 16  2  0
 15 17  1  0
 17 18  1  0
 18 19  2  0
 18 20  1  0
 20 21  2  0
 21 22  1  0
 22 23  1  0
 23 24  3  0
 19 25  1  0
 22 25  2  0
 25 26  1  0
 26 27  1  1
 26 28  1  0
 26 29  1  0
M  END
$$$$
