1Z95_198_A_501
     RDKit          3D

 29 30  0  0  0  0  0  0  0  0999 V2000
   27.9779   -1.0328    4.8703 C   0  0  0  0  0  0  0  0  0  0  0  0
   27.6316   -2.2604    4.3115 C   0  0  0  0  0  0  0  0  0  0  0  0
   28.5400   -3.0182    3.5953 C   0  0  0  0  0  0  0  0  0  0  0  0
   28.1991   -4.2034    3.0580 F   0  0  0  0  0  0  0  0  0  0  0  0
   29.8321   -2.5582    3.4202 C   0  0  0  0  0  0  0  0  0  0  0  0
   30.1711   -1.3420    3.9751 C   0  0  0  0  0  0  0  0  0  0  0  0
   29.2644   -0.5774    4.6945 C   0  0  0  0  0  0  0  0  0  0  0  0
   29.8021    0.9631    5.3616 S   0  0  1  0  0  0  0  0  0  0  0  0
   31.0420    1.3712    4.6251 O   0  0  0  0  0  0  0  0  0  0  0  0
   28.6965    1.9311    5.1774 O   0  0  0  0  0  0  0  0  0  0  0  0
   30.1557    0.6845    7.0891 C   0  0  0  0  0  0  0  0  0  0  0  0
   28.8952    0.9351    7.8913 C   0  0  1  0  0  0  0  0  0  0  0  0
   28.0880   -0.2093    7.8121 O   0  0  0  0  0  0  0  0  0  0  0  0
   29.2025    1.1371    9.3562 C   0  0  0  0  0  0  0  0  0  0  0  0
   28.1812    2.1527    7.4222 C   0  0  0  0  0  0  0  0  0  0  0  0
   28.7881    3.2556    7.5065 O   0  0  0  0  0  0  0  0  0  0  0  0
   26.8540    2.0424    6.8995 N   0  0  0  0  0  0  0  0  0  0  0  0
   26.2196    3.2069    6.3613 C   0  0  0  0  0  0  0  0  0  0  0  0
   27.0509    4.1309    5.7310 C   0  0  0  0  0  0  0  0  0  0  0  0
   24.8592    3.4217    6.4514 C   0  0  0  0  0  0  0  0  0  0  0  0
   24.3082    4.5666    5.9112 C   0  0  0  0  0  0  0  0  0  0  0  0
   25.1365    5.4797    5.2873 C   0  0  0  0  0  0  0  0  0  0  0  0
   24.5482    6.6488    4.7396 C   0  0  0  0  0  0  0  0  0  0  0  0
   24.0801    7.5896    4.2792 N   0  0  0  0  0  0  0  0  0  0  0  0
   26.4995    5.2591    5.2001 C   0  0  0  0  0  0  0  0  0  0  0  0
   27.3770    6.2496    4.5265 C   0  0  1  0  0  0  0  0  0  0  0  0
   26.8673    6.6846    3.3419 F   0  0  0  0  0  0  0  0  0  0  0  0
   27.5031    7.3144    5.3886 F   0  0  0  0  0  0  0  0  0  0  0  0
   28.6120    5.6522    4.3800 F   0  0  0  0  0  0  0  0  0  0  0  0
  1  2  2  0
  2  3  1  0
  3  4  1  0
  3  5  2  0
  5  6  1  0
  1  7  1  0
  6  7  2  0
  7  8  1  0
  8  9  2  0
  8 10  2  0
  8 11  1  1
 11 12  1  0
 12 13  1  0
 12 14  1  1
 12 15  1  0
 15 16  2  0
 15 17  1  0
 17 18  1  0
 18 19  2  0
 18 20  1  0
 20 21  2  0
 21 22  1  0
 22 23  1  0
 23 24  3  0
 19 25  1  0
 22 25  2  0
 25 26  1  0
 26 27  1  6
 26 28  1  0
 26 29  1  0
M  END
$$$$
