1Z95_198_A_501
     RDKit          3D

 29 30  0  0  0  0  0  0  0  0999 V2000
   30.0354   -2.8855    3.7130 C   0  0  0  0  0  0  0  0  0  0  0  0
   29.2173   -3.8880    3.1985 C   0  0  0  0  0  0  0  0  0  0  0  0
   27.9881   -4.1854    3.7579 C   0  0  0  0  0  0  0  0  0  0  0  0
   27.2024   -5.1552    3.2561 F   0  0  0  0  0  0  0  0  0  0  0  0
   27.5446   -3.4768    4.8592 C   0  0  0  0  0  0  0  0  0  0  0  0
   28.3577   -2.4847    5.3658 C   0  0  0  0  0  0  0  0  0  0  0  0
   29.5916   -2.1818    4.8090 C   0  0  0  0  0  0  0  0  0  0  0  0
   30.5516   -0.8942    5.5354 S   0  0  1  0  0  0  0  0  0  0  0  0
   31.0817   -1.4020    6.8420 O   0  0  0  0  0  0  0  0  0  0  0  0
   31.6351   -0.5630    4.5816 O   0  0  0  0  0  0  0  0  0  0  0  0
   29.4528    0.4888    5.7936 C   0  0  0  0  0  0  0  0  0  0  0  0
   29.3437    1.2727    4.5017 C   0  0  1  0  0  0  0  0  0  0  0  0
   30.5699    1.9133    4.2705 O   0  0  0  0  0  0  0  0  0  0  0  0
   29.1113    0.3617    3.3196 C   0  0  0  0  0  0  0  0  0  0  0  0
   28.2114    2.2364    4.5405 C   0  0  0  0  0  0  0  0  0  0  0  0
   27.0414    1.7645    4.5409 O   0  0  0  0  0  0  0  0  0  0  0  0
   28.4745    3.6423    4.5755 N   0  0  0  0  0  0  0  0  0  0  0  0
   27.3730    4.5548    4.6253 C   0  0  0  0  0  0  0  0  0  0  0  0
   26.1041    3.9898    4.7392 C   0  0  0  0  0  0  0  0  0  0  0  0
   27.5378    5.9237    4.5651 C   0  0  0  0  0  0  0  0  0  0  0  0
   26.4333    6.7506    4.6181 C   0  0  0  0  0  0  0  0  0  0  0  0
   25.1774    6.1857    4.7310 C   0  0  0  0  0  0  0  0  0  0  0  0
   24.0573    7.0549    4.7837 C   0  0  0  0  0  0  0  0  0  0  0  0
   23.1396    7.7421    4.8253 N   0  0  0  0  0  0  0  0  0  0  0  0
   25.0184    4.8127    4.7909 C   0  0  0  0  0  0  0  0  0  0  0  0
   23.6622    4.2204    4.9123 C   0  0  1  0  0  0  0  0  0  0  0  0
   23.0232    4.5979    6.0531 F   0  0  0  0  0  0  0  0  0  0  0  0
   22.9444    4.6533    3.8214 F   0  0  0  0  0  0  0  0  0  0  0  0
   23.8164    2.8522    4.8240 F   0  0  0  0  0  0  0  0  0  0  0  0
  1  2  2  0
  2  3  1  0
  3  4  1  0
  3  5  2  0
  5  6  1  0
  1  7  1  0
  6  7  2  0
  7  8  1  0
  8  9  2  0
  8 10  2  0
  8 11  1  1
 11 12  1  0
 12 13  1  0
 12 14  1  6
 12 15  1  0
 15 16  2  0
 15 17  1  0
 17 18  1  0
 18 19  2  0
 18 20  1  0
 20 21  2  0
 21 22  1  0
 22 23  1  0
 23 24  3  0
 19 25  1  0
 22 25  2  0
 25 26  1  0
 26 27  1  1
 26 28  1  0
 26 29  1  0
M  END
$$$$
