1Z95_198_A_501
     RDKit          3D

 29 30  0  0  0  0  0  0  0  0999 V2000
   31.2329    0.0291    9.4206 C   0  0  0  0  0  0  0  0  0  0  0  0
   31.0038   -0.2707   10.7610 C   0  0  0  0  0  0  0  0  0  0  0  0
   29.8089    0.0397   11.3840 C   0  0  0  0  0  0  0  0  0  0  0  0
   29.5937   -0.2526   12.6794 F   0  0  0  0  0  0  0  0  0  0  0  0
   28.8036    0.6653   10.6700 C   0  0  0  0  0  0  0  0  0  0  0  0
   29.0344    0.9605    9.3428 C   0  0  0  0  0  0  0  0  0  0  0  0
   30.2309    0.6516    8.7123 C   0  0  0  0  0  0  0  0  0  0  0  0
   30.4216    1.0734    7.0114 S   0  0  1  0  0  0  0  0  0  0  0  0
   29.8127    2.4274    6.8061 O   0  0  0  0  0  0  0  0  0  0  0  0
   31.8728    1.0607    6.7161 O   0  0  0  0  0  0  0  0  0  0  0  0
   29.5446   -0.1637    6.0693 C   0  0  0  0  0  0  0  0  0  0  0  0
   29.2723    0.3819    4.6825 C   0  0  1  0  0  0  0  0  0  0  0  0
   30.4905    0.7998    4.1267 O   0  0  0  0  0  0  0  0  0  0  0  0
   28.7312   -0.6876    3.7634 C   0  0  0  0  0  0  0  0  0  0  0  0
   28.2695    1.4800    4.7138 C   0  0  0  0  0  0  0  0  0  0  0  0
   27.1237    1.2130    5.1695 O   0  0  0  0  0  0  0  0  0  0  0  0
   28.6242    2.7813    4.2365 N   0  0  0  0  0  0  0  0  0  0  0  0
   27.6598    3.8361    4.3115 C   0  0  0  0  0  0  0  0  0  0  0  0
   26.3798    3.4778    4.7305 C   0  0  0  0  0  0  0  0  0  0  0  0
   27.9615    5.1441    3.9906 C   0  0  0  0  0  0  0  0  0  0  0  0
   26.9853    6.1161    4.0839 C   0  0  0  0  0  0  0  0  0  0  0  0
   25.7178    5.7559    4.4998 C   0  0  0  0  0  0  0  0  0  0  0  0
   24.7310    6.7713    4.5882 C   0  0  0  0  0  0  0  0  0  0  0  0
   23.9205    7.5810    4.6498 N   0  0  0  0  0  0  0  0  0  0  0  0
   25.4213    4.4431    4.8202 C   0  0  0  0  0  0  0  0  0  0  0  0
   24.0544    4.0712    5.2657 C   0  0  1  0  0  0  0  0  0  0  0  0
   23.8226    2.7323    5.1908 F   0  0  0  0  0  0  0  0  0  0  0  0
   23.9411    4.4825    6.5737 F   0  0  0  0  0  0  0  0  0  0  0  0
   23.1728    4.8015    4.4958 F   0  0  0  0  0  0  0  0  0  0  0  0
  1  2  2  0
  2  3  1  0
  3  4  1  0
  3  5  2  0
  5  6  1  0
  1  7  1  0
  6  7  2  0
  7  8  1  0
  8  9  2  0
  8 10  2  0
  8 11  1  6
 11 12  1  0
 12 13  1  0
 12 14  1  6
 12 15  1  0
 15 16  2  0
 15 17  1  0
 17 18  1  0
 18 19  2  0
 18 20  1  0
 20 21  2  0
 21 22  1  0
 22 23  1  0
 23 24  3  0
 19 25  1  0
 22 25  2  0
 25 26  1  0
 26 27  1  1
 26 28  1  0
 26 29  1  0
M  END
$$$$
