1Z95_198_A_501
     RDKit          3D

 29 30  0  0  0  0  0  0  0  0999 V2000
   29.5279    2.9205    5.0430 C   0  0  0  0  0  0  0  0  0  0  0  0
   28.8026    4.1086    5.0800 C   0  0  0  0  0  0  0  0  0  0  0  0
   28.2547    4.5925    6.2538 C   0  0  0  0  0  0  0  0  0  0  0  0
   27.5550    5.7411    6.2830 F   0  0  0  0  0  0  0  0  0  0  0  0
   28.4227    3.8888    7.4321 C   0  0  0  0  0  0  0  0  0  0  0  0
   29.1416    2.7127    7.3913 C   0  0  0  0  0  0  0  0  0  0  0  0
   29.6936    2.2222    6.2170 C   0  0  0  0  0  0  0  0  0  0  0  0
   30.5946    0.7082    6.2763 S   0  0  1  0  0  0  0  0  0  0  0  0
   31.0380    0.3863    4.8814 O   0  0  0  0  0  0  0  0  0  0  0  0
   31.7382    0.9137    7.1947 O   0  0  0  0  0  0  0  0  0  0  0  0
   29.4725   -0.5389    6.8867 C   0  0  0  0  0  0  0  0  0  0  0  0
   28.3564   -0.7256    5.8795 C   0  0  1  0  0  0  0  0  0  0  0  0
   28.9257   -1.1172    4.6588 O   0  0  0  0  0  0  0  0  0  0  0  0
   27.4222   -1.8396    6.2887 C   0  0  0  0  0  0  0  0  0  0  0  0
   27.5339    0.5059    5.7399 C   0  0  0  0  0  0  0  0  0  0  0  0
   26.9826    0.9619    6.7790 O   0  0  0  0  0  0  0  0  0  0  0  0
   27.3935    1.1263    4.4583 N   0  0  0  0  0  0  0  0  0  0  0  0
   26.7421    2.3975    4.3689 C   0  0  0  0  0  0  0  0  0  0  0  0
   25.4725    2.4853    4.9370 C   0  0  0  0  0  0  0  0  0  0  0  0
   27.3230    3.4897    3.7570 C   0  0  0  0  0  0  0  0  0  0  0  0
   26.6416    4.6893    3.7038 C   0  0  0  0  0  0  0  0  0  0  0  0
   25.3831    4.7714    4.2685 C   0  0  0  0  0  0  0  0  0  0  0  0
   24.7018    6.0140    4.2019 C   0  0  0  0  0  0  0  0  0  0  0  0
   24.1668    7.0270    4.1401 N   0  0  0  0  0  0  0  0  0  0  0  0
   24.8058    3.6731    4.8805 C   0  0  0  0  0  0  0  0  0  0  0  0
   23.4526    3.7767    5.4829 C   0  0  1  0  0  0  0  0  0  0  0  0
   23.3926    4.6925    6.4879 F   0  0  0  0  0  0  0  0  0  0  0  0
   22.5988    4.1515    4.4713 F   0  0  0  0  0  0  0  0  0  0  0  0
   23.1069    2.5095    5.9048 F   0  0  0  0  0  0  0  0  0  0  0  0
  1  2  2  0
  2  3  1  0
  3  4  1  0
  3  5  2  0
  5  6  1  0
  1  7  1  0
  6  7  2  0
  7  8  1  0
  8  9  2  0
  8 10  2  0
  8 11  1  1
 11 12  1  0
 12 13  1  0
 12 14  1  1
 12 15  1  0
 15 16  2  0
 15 17  1  0
 17 18  1  0
 18 19  2  0
 18 20  1  0
 20 21  2  0
 21 22  1  0
 22 23  1  0
 23 24  3  0
 19 25  1  0
 22 25  2  0
 25 26  1  0
 26 27  1  1
 26 28  1  0
 26 29  1  0
M  END
$$$$
