1Z95_198_A_501
     RDKit          3D

 29 30  0  0  0  0  0  0  0  0999 V2000
   31.1150   -0.2277    9.4555 C   0  0  0  0  0  0  0  0  0  0  0  0
   30.9114   -0.5314   10.7991 C   0  0  0  0  0  0  0  0  0  0  0  0
   29.8616    0.0097   11.5184 C   0  0  0  0  0  0  0  0  0  0  0  0
   29.6704   -0.2879   12.8164 F   0  0  0  0  0  0  0  0  0  0  0  0
   28.9807    0.8782   10.9009 C   0  0  0  0  0  0  0  0  0  0  0  0
   29.1857    1.1766    9.5702 C   0  0  0  0  0  0  0  0  0  0  0  0
   30.2368    0.6370    8.8434 C   0  0  0  0  0  0  0  0  0  0  0  0
   30.4073    1.0852    7.1471 S   0  0  1  0  0  0  0  0  0  0  0  0
   29.7992    2.4436    6.9709 O   0  0  0  0  0  0  0  0  0  0  0  0
   31.8547    1.0740    6.8334 O   0  0  0  0  0  0  0  0  0  0  0  0
   29.5156   -0.1348    6.1966 C   0  0  0  0  0  0  0  0  0  0  0  0
   29.2343    0.4304    4.8195 C   0  0  1  0  0  0  0  0  0  0  0  0
   30.4441    0.8847    4.2743 O   0  0  0  0  0  0  0  0  0  0  0  0
   28.7182   -0.6334    3.8795 C   0  0  0  0  0  0  0  0  0  0  0  0
   28.2079    1.5058    4.8687 C   0  0  0  0  0  0  0  0  0  0  0  0
   27.0596    1.1995    5.2923 O   0  0  0  0  0  0  0  0  0  0  0  0
   28.5437    2.8299    4.4435 N   0  0  0  0  0  0  0  0  0  0  0  0
   27.5313    3.8414    4.4541 C   0  0  0  0  0  0  0  0  0  0  0  0
   26.2325    3.4163    4.7274 C   0  0  0  0  0  0  0  0  0  0  0  0
   27.8060    5.1716    4.2093 C   0  0  0  0  0  0  0  0  0  0  0  0
   26.7836    6.0992    4.2341 C   0  0  0  0  0  0  0  0  0  0  0  0
   25.4976    5.6728    4.5055 C   0  0  0  0  0  0  0  0  0  0  0  0
   24.4632    6.6435    4.5258 C   0  0  0  0  0  0  0  0  0  0  0  0
   23.6401    7.4425    4.5456 N   0  0  0  0  0  0  0  0  0  0  0  0
   25.2282    4.3380    4.7501 C   0  0  0  0  0  0  0  0  0  0  0  0
   23.8410    3.8948    5.0404 C   0  0  1  0  0  0  0  0  0  0  0  0
   22.9180    4.4992    4.2436 F   0  0  0  0  0  0  0  0  0  0  0  0
   23.8092    2.5360    4.8276 F   0  0  0  0  0  0  0  0  0  0  0  0
   23.6184    4.1367    6.3803 F   0  0  0  0  0  0  0  0  0  0  0  0
  1  2  2  0
  2  3  1  0
  3  4  1  0
  3  5  2  0
  5  6  1  0
  1  7  1  0
  6  7  2  0
  7  8  1  0
  8  9  2  0
  8 10  2  0
  8 11  1  6
 11 12  1  0
 12 13  1  0
 12 14  1  6
 12 15  1  0
 15 16  2  0
 15 17  1  0
 17 18  1  0
 18 19  2  0
 18 20  1  0
 20 21  2  0
 21 22  1  0
 22 23  1  0
 23 24  3  0
 19 25  1  0
 22 25  2  0
 25 26  1  0
 26 27  1  6
 26 28  1  0
 26 29  1  0
M  END
$$$$
