1Z95_198_A_501
     RDKit          3D

 29 30  0  0  0  0  0  0  0  0999 V2000
   32.3658   -2.8861    4.4146 C   0  0  0  0  0  0  0  0  0  0  0  0
   33.6964   -3.2214    4.1780 C   0  0  0  0  0  0  0  0  0  0  0  0
   34.3686   -2.7877    3.0500 C   0  0  0  0  0  0  0  0  0  0  0  0
   35.6543   -3.1151    2.8273 F   0  0  0  0  0  0  0  0  0  0  0  0
   33.7153   -1.9984    2.1215 C   0  0  0  0  0  0  0  0  0  0  0  0
   32.3976   -1.6686    2.3594 C   0  0  0  0  0  0  0  0  0  0  0  0
   31.7181   -2.1006    3.4889 C   0  0  0  0  0  0  0  0  0  0  0  0
   30.0344   -1.6209    3.6955 S   0  0  1  0  0  0  0  0  0  0  0  0
   29.2759   -2.0878    2.4901 O   0  0  0  0  0  0  0  0  0  0  0  0
   29.5479   -2.2529    4.9434 O   0  0  0  0  0  0  0  0  0  0  0  0
   30.0130    0.1608    3.8051 C   0  0  0  0  0  0  0  0  0  0  0  0
   29.4873    0.5591    5.1689 C   0  0  1  0  0  0  0  0  0  0  0  0
   28.7489   -0.5150    5.6871 O   0  0  0  0  0  0  0  0  0  0  0  0
   30.6129    0.8100    6.1443 C   0  0  0  0  0  0  0  0  0  0  0  0
   28.6808    1.8071    5.1013 C   0  0  0  0  0  0  0  0  0  0  0  0
   29.2584    2.8559    4.7036 O   0  0  0  0  0  0  0  0  0  0  0  0
   27.3016    1.7845    5.4810 N   0  0  0  0  0  0  0  0  0  0  0  0
   26.5372    2.9915    5.3960 C   0  0  0  0  0  0  0  0  0  0  0  0
   27.2476    4.1573    5.1160 C   0  0  0  0  0  0  0  0  0  0  0  0
   25.1694    3.0201    5.5784 C   0  0  0  0  0  0  0  0  0  0  0  0
   24.4896    4.2181    5.4833 C   0  0  0  0  0  0  0  0  0  0  0  0
   25.1983    5.3712    5.2055 C   0  0  0  0  0  0  0  0  0  0  0  0
   24.4788    6.5904    5.1124 C   0  0  0  0  0  0  0  0  0  0  0  0
   23.8808    7.5663    5.0323 N   0  0  0  0  0  0  0  0  0  0  0  0
   26.5693    5.3363    5.0236 C   0  0  0  0  0  0  0  0  0  0  0  0
   27.3174    6.5839    4.7256 C   0  0  1  0  0  0  0  0  0  0  0  0
   28.6229    6.3539    4.4176 F   0  0  0  0  0  0  0  0  0  0  0  0
   26.6907    7.1717    3.6511 F   0  0  0  0  0  0  0  0  0  0  0  0
   27.1731    7.4062    5.8240 F   0  0  0  0  0  0  0  0  0  0  0  0
  1  2  2  0
  2  3  1  0
  3  4  1  0
  3  5  2  0
  5  6  1  0
  1  7  1  0
  6  7  2  0
  7  8  1  0
  8  9  2  0
  8 10  2  0
  8 11  1  1
 11 12  1  0
 12 13  1  0
 12 14  1  1
 12 15  1  0
 15 16  2  0
 15 17  1  0
 17 18  1  0
 18 19  2  0
 18 20  1  0
 20 21  2  0
 21 22  1  0
 22 23  1  0
 23 24  3  0
 19 25  1  0
 22 25  2  0
 25 26  1  0
 26 27  1  6
 26 28  1  0
 26 29  1  0
M  END
$$$$
