7SCW_GSP_A_202
     RDKit          3D

 32 34  0  0  0  0  0  0  0  0999 V2000
   16.3771   14.1971  -18.6518 P   0  0  1  0  0  0  0  0  0  0  0  0
   16.1172   13.5947  -20.2089 O   0  0  0  0  0  0  0  0  0  0  0  0
   16.2465   15.9133  -18.6321 S   0  0  0  0  0  0  0  0  0  0  0  0
   15.3092   13.5451  -17.5174 O   0  0  0  0  0  0  0  0  0  0  0  0
   17.9702   13.8261  -18.1589 O   0  0  0  0  0  0  0  0  0  0  0  0
   14.5643   14.1122  -20.6955 P   0  0  1  0  0  0  0  0  0  0  0  0
   14.6131   15.6098  -20.8608 O   0  0  0  0  0  0  0  0  0  0  0  0
   14.2438   13.3207  -22.1646 O   0  0  0  0  0  0  0  0  0  0  0  0
   12.1421   12.8708  -20.4601 P   0  0  1  0  0  0  0  0  0  0  0  0
   10.8526   12.8902  -19.6411 O   0  0  0  0  0  0  0  0  0  0  0  0
   11.9070   13.6314  -21.9517 O   0  0  0  0  0  0  0  0  0  0  0  0
   13.3900   13.6343  -19.6018 O   0  0  0  0  0  0  0  0  0  0  0  0
   12.4988   11.2501  -20.7457 O   0  0  0  0  0  0  0  0  0  0  0  0
   12.7100   10.5912  -19.5374 C   0  0  0  0  0  0  0  0  0  0  0  0
   13.9191    9.6817  -19.5985 C   0  0  1  0  0  0  0  0  0  0  0  0
   14.8059   10.2347  -20.5145 O   0  0  0  0  0  0  0  0  0  0  0  0
   14.6177    9.6873  -18.2635 C   0  0  1  0  0  0  0  0  0  0  0  0
   14.4855    8.4563  -17.6309 O   0  0  0  0  0  0  0  0  0  0  0  0
   16.0256   10.0473  -18.6073 C   0  0  1  0  0  0  0  0  0  0  0  0
   16.9563    9.1503  -18.0635 O   0  0  0  0  0  0  0  0  0  0  0  0
   16.0821    9.8724  -20.0970 C   0  0  2  0  0  0  0  0  0  0  0  0
   17.0963   10.7032  -20.6783 N   0  0  0  0  0  0  0  0  0  0  0  0
   16.9081   12.0271  -20.9271 C   0  0  0  0  0  0  0  0  0  0  0  0
   18.0284   12.5474  -21.4733 N   0  0  0  0  0  0  0  0  0  0  0  0
   18.9406   11.5662  -21.5792 C   0  0  0  0  0  0  0  0  0  0  0  0
   20.2342   11.5218  -22.0543 C   0  0  0  0  0  0  0  0  0  0  0  0
   20.7439   12.5688  -22.4984 O   0  0  0  0  0  0  0  0  0  0  0  0
   20.8872   10.3563  -22.0183 N   0  0  0  0  0  0  0  0  0  0  0  0
   20.3057    9.2238  -21.5268 C   0  0  0  0  0  0  0  0  0  0  0  0
   21.0818    8.0354  -21.5315 N   0  0  0  0  0  0  0  0  0  0  0  0
   19.0332    9.2676  -21.0594 N   0  0  0  0  0  0  0  0  0  0  0  0
   18.3473   10.4256  -21.0812 C   0  0  0  0  0  0  0  0  0  0  0  0
  1  2  1  0
  1  3  2  0
  1  4  1  1
  1  5  1  0
  2  6  1  0
  6  7  2  0
  6  8  1  6
  9 10  2  0
  9 11  1  6
  6 12  1  0
  9 12  1  0
  9 13  1  0
 13 14  1  0
 15 14  1  1
 15 16  1  0
 15 17  1  0
 17 18  1  6
 17 19  1  0
 19 20  1  1
 16 21  1  0
 19 21  1  0
 21 22  1  6
 22 23  1  0
 23 24  2  0
 24 25  1  0
 25 26  1  0
 26 27  2  0
 26 28  1  0
 28 29  1  0
 29 30  1  0
 29 31  2  0
 22 32  1  0
 25 32  2  0
 31 32  1  0
M  END
$$$$
