7NF3_4LU_A_603
     RDKit          3D

 36 39  0  0  0  0  0  0  0  0999 V2000
    3.1736   17.0397   12.9098 C   0  0  0  0  0  0  0  0  0  0  0  0
    3.0656   15.7850   12.3456 C   0  0  0  0  0  0  0  0  0  0  0  0
    2.7472   15.6063   10.9914 C   0  0  0  0  0  0  0  0  0  0  0  0
    2.8853   20.6139   12.0042 C   0  0  0  0  0  0  0  0  0  0  0  0
    2.5364   16.7472   10.2035 C   0  0  0  0  0  0  0  0  0  0  0  0
    2.4796   22.8745   10.5493 N   0  0  0  0  0  0  0  0  0  0  0  0
    2.7916   22.9791   11.8423 C   0  0  0  0  0  0  0  0  0  0  0  0
    1.2443   15.4846    8.4600 C   0  0  0  0  0  0  0  0  0  0  0  0
    2.2569   16.5342    8.7940 C   0  0  1  0  0  0  0  0  0  0  0  0
    2.1385   19.0610    8.8127 C   0  0  0  0  0  0  0  0  0  0  0  0
    2.8924   24.1187   12.3637 O   0  0  0  0  0  0  0  0  0  0  0  0
    2.9918   21.8339   12.5577 N   0  0  0  0  0  0  0  0  0  0  0  0
    2.3646   21.6432    9.9614 C   0  0  0  0  0  0  0  0  0  0  0  0
    2.0676   21.6898    8.7452 O   0  0  0  0  0  0  0  0  0  0  0  0
    2.5625   20.4779   10.6658 C   0  0  0  0  0  0  0  0  0  0  0  0
    2.4371   19.1934   10.0441 N   0  0  0  0  0  0  0  0  0  0  0  0
    1.9776   17.7982    8.0657 C   0  0  0  0  0  0  0  0  0  0  0  0
    3.5596   16.0090    8.1695 C   0  0  0  0  0  0  0  0  0  0  0  0
    2.6509   18.0130   10.8057 C   0  0  0  0  0  0  0  0  0  0  0  0
    2.6483   14.2365   10.5022 C   0  0  0  0  0  0  0  0  0  0  0  0
    3.2986   14.5976   13.2361 C   0  0  0  0  0  0  0  0  0  0  0  0
    2.9656   18.1601   12.1413 C   0  0  0  0  0  0  0  0  0  0  0  0
    3.0969   19.4202   12.7901 N   0  0  0  0  0  0  0  0  0  0  0  0
    3.3935   19.5518   14.2124 C   0  0  0  0  0  0  0  0  0  0  0  0
    2.1841   19.4641   15.0714 C   0  0  2  0  0  0  0  0  0  0  0  0
    1.2408   20.4968   14.8279 O   0  0  0  0  0  0  0  0  0  0  0  0
    2.4478   19.4909   16.5582 C   0  0  2  0  0  0  0  0  0  0  0  0
    3.2297   18.3368   16.8593 O   0  0  0  0  0  0  0  0  0  0  0  0
    1.1987   19.3800   17.4000 C   0  0  2  0  0  0  0  0  0  0  0  0
    0.0446   19.6914   16.7228 O   0  0  0  0  0  0  0  0  0  0  0  0
    1.3098   20.3909   18.5393 C   0  0  0  0  0  0  0  0  0  0  0  0
    0.7840   21.6208   18.1755 O   0  0  0  0  0  0  0  0  0  0  0  0
    0.9979   22.7651   19.4153 P   0  0  1  0  0  0  0  0  0  0  0  0
    0.1236   22.3856   20.5858 O   0  0  0  0  0  0  0  0  0  0  0  0
    2.6040   22.8982   19.8727 O   0  0  0  0  0  0  0  0  0  0  0  0
    0.5326   24.2870   18.7879 O   0  0  0  0  0  0  0  0  0  0  0  0
  1  2  2  0
  2  3  1  0
  3  5  2  0
  6  7  1  0
  9  8  1  1
  5  9  1  0
  7 11  2  0
  4 12  1  0
  7 12  1  0
  6 13  1  0
 13 14  2  0
  4 15  2  0
 13 15  1  0
 10 16  2  0
 15 16  1  0
  9 17  1  0
 10 17  1  0
  9 18  1  0
  5 19  1  0
 16 19  1  0
  3 20  1  0
  2 21  1  0
  1 22  1  0
 19 22  2  0
 22 23  1  0
  4 23  1  0
 23 24  1  0
 24 25  1  0
 25 26  1  6
 25 27  1  0
 27 28  1  1
 27 29  1  0
 29 30  1  6
 29 31  1  0
 31 32  1  0
 32 33  1  0
 33 34  2  0
 33 35  1  1
 33 36  1  0
M  CHG  1  16   1
M  END
$$$$
