
     RDKit          3D

 20 22  0  0  0  0  0  0  0  0999 V2000
   11.7645   23.7493   34.2050 O   0  0  0  0  0  0  0  0  0  0  0  0
   10.7031   24.1141   33.7175 C   0  0  0  0  0  0  0  0  0  0  0  0
   10.4177   25.4190   33.3876 N   0  0  0  0  0  0  0  0  0  0  0  0
    9.2180   25.8220   32.8549 C   0  0  0  0  0  0  0  0  0  0  0  0
    9.0891   27.1453   32.5937 N   0  0  0  0  0  0  0  0  0  0  0  0
    8.2390   25.0061   32.5949 N   0  0  0  0  0  0  0  0  0  0  0  0
    8.4783   23.7016   32.8996 C   0  0  0  0  0  0  0  0  0  0  0  0
    9.6035   23.2059   33.4194 C   0  0  0  0  0  0  0  0  0  0  0  0
    9.5135   21.8550   33.5621 N   0  0  0  0  0  0  0  0  0  0  0  0
    8.2496   21.4574   33.0916 C   0  0  0  0  0  0  0  0  0  0  0  0
    7.8388   20.3118   33.0255 O   0  0  0  0  0  0  0  0  0  0  0  0
    7.6062   22.6557   32.7074 N   0  0  0  0  0  0  0  0  0  0  0  0
    6.3175   22.7515   32.0866 C   0  0  2  0  0  0  0  0  0  0  0  0
    6.4716   22.9227   30.6674 O   0  0  0  0  0  0  0  0  0  0  0  0
    5.4578   23.8967   32.5918 C   0  0  0  0  0  0  0  0  0  0  0  0
    4.5749   24.1694   31.3965 C   0  0  2  0  0  0  0  0  0  0  0  0
    3.4607   23.2652   31.4326 O   0  0  0  0  0  0  0  0  0  0  0  0
    5.4814   23.8687   30.2020 C   0  0  1  0  0  0  0  0  0  0  0  0
    6.1818   25.1029   29.6216 C   0  0  0  0  0  0  0  0  0  0  0  0
    6.2632   26.1764   30.5502 O   0  0  0  0  0  0  0  0  0  0  0  0
  1  2  2  0
  2  3  4  0
  3  4  4  0
  4  5  1  0
  4  6  4  0
  6  7  4  0
  2  8  4  0
  7  8  4  0
  8  9  4  0
  9 10  4  0
 10 11  2  0
  7 12  4  0
 10 12  4  0
 13 12  1  1
 13 14  1  0
 13 15  1  0
 15 16  1  0
 16 17  1  1
 14 18  1  0
 16 18  1  0
 18 19  1  1
 19 20  1  0
M  END
