7BCP_GCO_A_401
     RDKit          3D

 13 12  0  0  0  0  0  0  0  0999 V2000
   -9.1886   27.8697   -1.0354 C   0  0  0  0  0  0  0  0  0  0  0  0
  -10.4571   27.4259   -0.4591 C   0  0  1  0  0  0  0  0  0  0  0  0
  -10.9457   26.0608   -0.9716 C   0  0  2  0  0  0  0  0  0  0  0  0
  -12.2129   25.7318   -0.2922 C   0  0  1  0  0  0  0  0  0  0  0  0
  -13.4737   26.2986   -0.8924 C   0  0  1  0  0  0  0  0  0  0  0  0
  -14.6925   26.2276   -0.0519 C   0  0  0  0  0  0  0  0  0  0  0  0
   -8.1414   27.6791   -0.3307 O   0  0  0  0  0  0  0  0  0  0  0  0
   -8.9897   28.4748   -2.2525 O   0  0  0  0  0  0  0  0  0  0  0  0
  -10.2803   27.3203    0.9454 O   0  0  0  0  0  0  0  0  0  0  0  0
   -9.9182   25.1418   -0.6873 O   0  0  0  0  0  0  0  0  0  0  0  0
  -12.3552   24.3866   -0.0041 O   0  0  0  0  0  0  0  0  0  0  0  0
  -13.1699   27.6849   -1.0579 O   0  0  0  0  0  0  0  0  0  0  0  0
  -15.8116   26.7614   -0.6766 O   0  0  0  0  0  0  0  0  0  0  0  0
  1  2  1  0
  2  3  1  0
  3  4  1  0
  4  5  1  0
  5  6  1  0
  1  7  2  0
  1  8  1  0
  2  9  1  1
  3 10  1  1
  4 11  1  6
  5 12  1  1
  6 13  1  0
M  END
$$$$
