@<TRIPOS>MOLECULE
1GPK_HUP_A_1540
 36 38 0 0 0
SMALL
GASTEIGER

@<TRIPOS>ATOM
      1 C           0.7260   68.8480   60.5950 C.ar    1  UNL1        0.2489
      2 O           0.2650   69.3310   59.5260 O.2     1  UNL1       -0.2679
      3 N           2.0070   68.2910   60.6140 N.ar    1  UNL1       -0.3259
      4 C           0.0030   68.8250   61.8590 C.ar    1  UNL1        0.0031
      5 C           0.5760   68.2720   62.9860 C.ar    1  UNL1       -0.0497
      6 C           1.9080   67.6940   62.9880 C.ar    1  UNL1       -0.0038
      7 C           2.6240   67.7230   61.7490 C.ar    1  UNL1        0.0252
      8 C           4.0170   67.1690   61.5600 C.3     1  UNL1       -0.0020
      9 C           4.6570   66.5980   62.9020 C.3     1  UNL1        0.0058
     10 C           5.3760   67.6940   63.7160 C.2     1  UNL1       -0.0774
     11 C           4.3520   63.5530   63.7420 C.3     1  UNL1       -0.0465
     12 C           3.4630   64.6910   64.1430 C.2     1  UNL1       -0.0852
     13 C           3.5630   65.9670   63.7940 C.2     1  UNL1       -0.0422
     14 C           2.5690   67.0470   64.2830 C.3     1  UNL1        0.0694
     15 N           1.5080   66.4560   65.1460 N.3     1  UNL1       -0.3174
     16 C           3.3210   68.1300   65.1110 C.3     1  UNL1       -0.0057
     17 C           4.7650   68.3870   64.7180 C.2     1  UNL1       -0.0736
     18 C           5.4530   69.4590   65.5360 C.3     1  UNL1       -0.0437
     19 H           2.5177   68.2950   59.7723 H       1  UNL1        0.1686
     20 H          -0.9465   69.2259   61.9124 H       1  UNL1        0.0672
     21 H           0.0348   68.2691   63.8647 H       1  UNL1        0.0623
     22 H           4.6461   67.9515   61.1902 H       1  UNL1        0.0336
     23 H           3.9420   66.3522   60.8729 H       1  UNL1        0.0336
     24 H           5.3751   65.8606   62.6098 H       1  UNL1        0.0392
     25 H           6.3598   67.9112   63.4926 H       1  UNL1        0.0578
     26 H           4.0001   62.6492   64.1939 H       1  UNL1        0.0272
     27 H           5.3518   63.7493   64.0686 H       1  UNL1        0.0272
     28 H           4.3387   63.4481   62.6772 H       1  UNL1        0.0272
     29 H           2.6765   64.4528   64.7672 H       1  UNL1        0.0570
     30 H           1.0018   65.7423   64.6218 H       1  UNL1        0.1193
     31 H           0.8598   67.1878   65.4372 H       1  UNL1        0.1193
     32 H           3.3106   67.8236   66.1361 H       1  UNL1        0.0334
     33 H           2.8037   69.0474   64.9220 H       1  UNL1        0.0334
     34 H           6.4606   69.5758   65.1955 H       1  UNL1        0.0274
     35 H           5.4558   69.1739   66.5673 H       1  UNL1        0.0274
     36 H           4.9289   70.3850   65.4233 H       1  UNL1        0.0274
@<TRIPOS>BOND
     1     1     2    2
     2     1     3   ar
     3     1     4   ar
     4     4     5   ar
     5     5     6   ar
     6     3     7   ar
     7     6     7   ar
     8     7     8    1
     9     9     8    1
    10     9    10    1
    11    11    12    1
    12     9    13    1
    13    12    13    2
    14     6    14    1
    15    13    14    1
    16    14    15    1
    17    14    16    1
    18    10    17    2
    19    16    17    1
    20    17    18    1
    21     3    19    1
    22     4    20    1
    23     5    21    1
    24     8    22    1
    25     8    23    1
    26     9    24    1
    27    10    25    1
    28    11    26    1
    29    11    27    1
    30    11    28    1
    31    12    29    1
    32    15    30    1
    33    15    31    1
    34    16    32    1
    35    16    33    1
    36    18    34    1
    37    18    35    1
    38    18    36    1
