1GPK_HUP_A_1540
     RDKit          3D

 18 20  0  0  0  0  0  0  0  0999 V2000
    0.7260   68.8480   60.5950 C   0  0  0  0  0  0  0  0  0  0  0  0
    0.2650   69.3310   59.5260 O   0  0  0  0  0  0  0  0  0  0  0  0
    2.0070   68.2910   60.6140 N   0  0  0  0  0  0  0  0  0  0  0  0
    0.0030   68.8250   61.8590 C   0  0  0  0  0  0  0  0  0  0  0  0
    0.5760   68.2720   62.9860 C   0  0  0  0  0  0  0  0  0  0  0  0
    1.9080   67.6940   62.9880 C   0  0  0  0  0  0  0  0  0  0  0  0
    2.6240   67.7230   61.7490 C   0  0  0  0  0  0  0  0  0  0  0  0
    4.0170   67.1690   61.5600 C   0  0  0  0  0  0  0  0  0  0  0  0
    4.6570   66.5980   62.9020 C   0  0  1  0  0  0  0  0  0  0  0  0
    5.3760   67.6940   63.7160 C   0  0  0  0  0  0  0  0  0  0  0  0
    4.3520   63.5530   63.7420 C   0  0  0  0  0  0  0  0  0  0  0  0
    3.4630   64.6910   64.1430 C   0  0  0  0  0  0  0  0  0  0  0  0
    3.5630   65.9670   63.7940 C   0  0  0  0  0  0  0  0  0  0  0  0
    2.5690   67.0470   64.2830 C   0  0  2  0  0  0  0  0  0  0  0  0
    1.5080   66.4560   65.1460 N   0  0  0  0  0  0  0  0  0  0  0  0
    3.3210   68.1300   65.1110 C   0  0  0  0  0  0  0  0  0  0  0  0
    4.7650   68.3870   64.7180 C   0  0  0  0  0  0  0  0  0  0  0  0
    5.4530   69.4590   65.5360 C   0  0  0  0  0  0  0  0  0  0  0  0
  1  2  2  0
  1  3  1  0
  1  4  1  0
  4  5  2  0
  5  6  1  0
  3  7  1  0
  6  7  2  0
  7  8  1  0
  9  8  1  6
  9 10  1  0
 11 12  1  0
  9 13  1  0
 12 13  2  0
  6 14  1  0
 13 14  1  0
 14 15  1  1
 14 16  1  0
 10 17  2  0
 16 17  1  0
 17 18  1  0
M  END
$$$$
