1GPK_HUP_A_1540
     RDKit          3D

 36 38  0  0  0  0  0  0  0  0999 V2000
   -0.6829    1.6907    3.1130 C   0  0  0  0  0  0  0  0  0  0  0  0
   -0.9048    2.1122    4.2795 O   0  0  0  0  0  0  0  0  0  0  0  0
   -0.4503    0.3680    2.8996 N   0  0  0  0  0  0  0  0  0  0  0  0
   -0.6830    2.5810    2.0428 C   0  0  0  0  0  0  0  0  0  0  0  0
   -0.4296    2.1104    0.7571 C   0  0  0  0  0  0  0  0  0  0  0  0
   -0.1500    0.7480    0.5315 C   0  0  0  0  0  0  0  0  0  0  0  0
   -0.2119   -0.1329    1.6520 C   0  0  0  0  0  0  0  0  0  0  0  0
    0.0443   -1.6228    1.5122 C   0  0  0  0  0  0  0  0  0  0  0  0
   -0.0864   -2.1179    0.0657 C   0  0  1  0  0  0  0  0  0  0  0  0
   -1.5448   -2.1333   -0.3453 C   0  0  0  0  0  0  0  0  0  0  0  0
    2.6433   -2.7761   -1.0124 C   0  0  0  0  0  0  0  0  0  0  0  0
    1.9716   -1.4496   -1.2221 C   0  0  0  0  0  0  0  0  0  0  0  0
    0.7119   -1.1706   -0.7988 C   0  0  0  0  0  0  0  0  0  0  0  0
    0.0654    0.2100   -0.8972 C   0  0  2  0  0  0  0  0  0  0  0  0
    0.8980    1.1374   -1.6875 N   0  0  0  0  0  0  0  0  0  0  0  0
   -1.3124    0.0284   -1.5881 C   0  0  0  0  0  0  0  0  0  0  0  0
   -2.1275   -1.1220   -1.0243 C   0  0  0  0  0  0  0  0  0  0  0  0
   -3.5959   -1.2003   -1.3379 C   0  0  0  0  0  0  0  0  0  0  0  0
   -0.4614   -0.2817    3.7191 H   0  0  0  0  0  0  0  0  0  0  0  0
   -0.8865    3.6329    2.2031 H   0  0  0  0  0  0  0  0  0  0  0  0
   -0.4717    2.8214   -0.0540 H   0  0  0  0  0  0  0  0  0  0  0  0
    1.0743   -1.8318    1.8743 H   0  0  0  0  0  0  0  0  0  0  0  0
   -0.6565   -2.1887    2.1648 H   0  0  0  0  0  0  0  0  0  0  0  0
    0.2826   -3.1625    0.0036 H   0  0  0  0  0  0  0  0  0  0  0  0
   -2.1581   -2.9565    0.0126 H   0  0  0  0  0  0  0  0  0  0  0  0
    2.7199   -3.0002    0.0723 H   0  0  0  0  0  0  0  0  0  0  0  0
    3.6686   -2.7472   -1.4372 H   0  0  0  0  0  0  0  0  0  0  0  0
    2.0735   -3.5779   -1.5273 H   0  0  0  0  0  0  0  0  0  0  0  0
    2.5627   -0.6976   -1.7317 H   0  0  0  0  0  0  0  0  0  0  0  0
    0.3712    2.0178   -1.8818 H   0  0  0  0  0  0  0  0  0  0  0  0
    1.0599    0.7281   -2.6371 H   0  0  0  0  0  0  0  0  0  0  0  0
   -1.1606   -0.1723   -2.6711 H   0  0  0  0  0  0  0  0  0  0  0  0
   -1.8972    0.9710   -1.5078 H   0  0  0  0  0  0  0  0  0  0  0  0
   -3.8136   -2.1326   -1.9009 H   0  0  0  0  0  0  0  0  0  0  0  0
   -4.1806   -1.1979   -0.3938 H   0  0  0  0  0  0  0  0  0  0  0  0
   -3.9184   -0.3352   -1.9550 H   0  0  0  0  0  0  0  0  0  0  0  0
  1  2  2  0
  1  3  1  0
  1  4  1  0
  4  5  2  0
  5  6  1  0
  3  7  1  0
  6  7  2  0
  7  8  1  0
  9  8  1  0
  9 10  1  0
 11 12  1  0
  9 13  1  0
 12 13  2  0
  6 14  1  0
 13 14  1  0
 14 15  1  6
 14 16  1  0
 10 17  2  0
 16 17  1  0
 17 18  1  0
  3 19  1  0
  4 20  1  0
  5 21  1  0
  8 22  1  0
  8 23  1  0
  9 24  1  1
 10 25  1  0
 11 26  1  0
 11 27  1  0
 11 28  1  0
 12 29  1  0
 15 30  1  0
 15 31  1  0
 16 32  1  0
 16 33  1  0
 18 34  1  0
 18 35  1  0
 18 36  1  0
M  END
