8EX2_Q2Q_A_901
     RDKit          3D

 26 29  0  0  0  0  0  0  0  0999 V2000
   14.5981   13.1696   24.8232 C   0  0  0  0  0  0  0  0  0  0  0  0
   14.4952   14.1844   23.8765 C   0  0  0  0  0  0  0  0  0  0  0  0
   15.6158   14.5000   23.1221 C   0  0  0  0  0  0  0  0  0  0  0  0
   16.8234   13.8557   23.2672 C   0  0  0  0  0  0  0  0  0  0  0  0
   16.9192   12.8401   24.2176 C   0  0  0  0  0  0  0  0  0  0  0  0
   15.8086   12.5284   24.9642 C   0  0  0  0  0  0  0  0  0  0  0  0
   17.9812   14.2323   22.4386 C   0  0  0  0  0  0  0  0  0  0  0  0
   17.9279   15.5134   21.7056 C   0  0  0  0  0  0  0  0  0  0  0  0
   19.1877   15.6755   20.9510 C   0  0  0  0  0  0  0  0  0  0  0  0
   20.1492   13.6095   21.6757 C   0  0  0  0  0  0  0  0  0  0  0  0
   21.2963   12.8583   21.5224 C   0  0  0  0  0  0  0  0  0  0  0  0
   22.0959   13.5910   20.6694 C   0  0  0  0  0  0  0  0  0  0  0  0
   23.4499   13.1486   20.2247 C   0  0  2  0  0  0  0  0  0  0  0  0
   21.6097   11.5672   22.1255 C   0  0  0  0  0  0  0  0  0  0  0  0
   21.6554   11.5213   23.5217 C   0  0  0  0  0  0  0  0  0  0  0  0
   21.9428   10.3489   24.1843 C   0  0  0  0  0  0  0  0  0  0  0  0
   22.1870    9.2099   23.4328 C   0  0  0  0  0  0  0  0  0  0  0  0
   22.1414    9.2559   22.0417 C   0  0  0  0  0  0  0  0  0  0  0  0
   21.8511   10.4395   21.3681 C   0  0  0  0  0  0  0  0  0  0  0  0
   24.2250   12.9007   21.3594 F   0  0  0  0  0  0  0  0  0  0  0  0
   24.0706   14.1290   19.4633 F   0  0  0  0  0  0  0  0  0  0  0  0
   23.3433   11.9629   19.5457 F   0  0  0  0  0  0  0  0  0  0  0  0
   20.2515   14.7370   20.9526 N   0  0  0  0  0  0  0  0  0  0  0  0
   18.9611   13.4079   22.4162 N   0  0  0  0  0  0  0  0  0  0  0  0
   21.4298   14.7190   20.3476 N   0  0  0  0  0  0  0  0  0  0  0  0
   19.3137   16.7268   20.2607 O   0  0  0  0  0  0  0  0  0  0  0  0
  1  2  2  0
  2  3  1  0
  3  4  2  0
  4  5  1  0
  5  6  2  0
  1  6  1  0
  4  7  1  0
  8  7  1  6
  8  9  1  0
 10 11  2  0
 11 12  1  0
 12 13  1  0
 11 14  1  0
 14 15  2  0
 15 16  1  0
 16 17  2  0
 17 18  1  0
 18 19  2  0
 14 19  1  0
 13 20  1  1
 13 21  1  0
 13 22  1  0
 10 23  1  0
  9 23  1  0
  7 24  2  0
 10 24  1  0
 12 25  2  0
 23 25  1  0
  9 26  2  0
M  END
$$$$
