
     RDKit          3D

 13 13  0  0  0  0  0  0  0  0999 V2000
   30.4561   -3.4972   49.9039 N   0  0  0  0  0  0  0  0  0  0  0  0
   31.8151   -3.0371   49.5248 C   0  0  0  0  0  0  0  0  0  0  0  0
   32.6290   -4.1617   48.8759 C   0  0  0  0  0  0  0  0  0  0  0  0
   33.7301   -4.5469   49.2408 O   0  0  0  0  0  0  0  0  0  0  0  0
   31.8238   -1.7848   48.6277 C   0  0  0  0  0  0  0  0  0  0  0  0
   31.7728   -0.4610   49.3591 C   0  0  0  0  0  0  0  0  0  0  0  0
   31.7003    0.7425   48.6420 C   0  0  0  0  0  0  0  0  0  0  0  0
   31.7929   -0.4152   50.7611 C   0  0  0  0  0  0  0  0  0  0  0  0
   31.6391    1.9639   49.3140 C   0  0  0  0  0  0  0  0  0  0  0  0
   31.7320    0.8078   51.4337 C   0  0  0  0  0  0  0  0  0  0  0  0
   31.6538    1.9879   50.7024 C   0  0  0  0  0  0  0  0  0  0  0  0
   31.5920    3.2030   51.3176 O   0  0  0  0  0  0  0  0  0  0  0  0
   32.0533   -4.6991   47.7771 O   0  0  0  0  0  0  0  0  0  0  0  0
  2  1  1  0
  2  3  1  0
  3  4  2  0
  2  5  1  0
  5  6  1  0
  6  7  4  0
  6  8  4  0
  7  9  4  0
  8 10  4  0
  9 11  4  0
 10 11  4  0
 11 12  1  0
  3 13  1  0
M  END
