7BKA_4JC_E_201
     RDKit          3D

 23 23  0  0  0  0  0  0  0  0999 V2000
   16.9880   15.4486   23.5375 O   0  0  0  0  0  0  0  0  0  0  0  0
   16.7793   15.4180   25.0257 S   0  0  1  0  0  6  0  0  0  0  0  0
   15.9856   16.6303   25.4250 O   0  0  0  0  0  0  0  0  0  0  0  0
   15.9059   13.9899   25.4560 N   0  0  0  0  0  0  0  0  0  0  0  0
   18.3372   15.4284   25.8465 C   0  0  0  0  0  0  0  0  0  0  0  0
   18.4599   16.0040   27.1181 C   0  0  0  0  0  0  0  0  0  0  0  0
   19.6929   15.9992   27.7770 C   0  0  0  0  0  0  0  0  0  0  0  0
   19.4541   14.8323   25.2460 C   0  0  0  0  0  0  0  0  0  0  0  0
   20.6877   14.8267   25.9036 C   0  0  0  0  0  0  0  0  0  0  0  0
   20.8188   15.4217   27.1686 C   0  0  0  0  0  0  0  0  0  0  0  0
   22.1382   15.3857   27.8918 C   0  0  1  0  0  0  0  0  0  0  0  0
   22.2537   14.1250   28.7422 C   0  0  1  0  0  0  0  0  0  0  0  0
   15.6832   13.4891   24.5667 H   0  0  0  0  0  0  0  0  0  0  0  0
   14.9951   14.3006   25.8625 H   0  0  0  0  0  0  0  0  0  0  0  0
   17.6011   16.4510   27.6025 H   0  0  0  0  0  0  0  0  0  0  0  0
   19.7695   16.4422   28.7623 H   0  0  0  0  0  0  0  0  0  0  0  0
   19.3696   14.3667   24.2723 H   0  0  0  0  0  0  0  0  0  0  0  0
   21.5398   14.3559   25.4290 H   0  0  0  0  0  0  0  0  0  0  0  0
   22.9756   15.4130   27.1611 H   0  0  0  0  0  0  0  0  0  0  0  0
   22.2405   16.2794   28.5454 H   0  0  0  0  0  0  0  0  0  0  0  0
   22.1871   13.2201   28.1010 H   0  0  0  0  0  0  0  0  0  0  0  0
   23.2326   14.1182   29.2662 H   0  0  0  0  0  0  0  0  0  0  0  0
   21.4433   14.0967   29.5017 H   0  0  0  0  0  0  0  0  0  0  0  0
  1  2  2  0
  2  3  2  0
  2  4  1  6
  2  5  1  0
  5  6  2  0
  6  7  1  0
  5  8  1  0
  8  9  2  0
  7 10  2  0
  9 10  1  0
 10 11  1  0
 11 12  1  0
  4 13  1  0
  4 14  1  0
  6 15  1  0
  7 16  1  0
  8 17  1  0
  9 18  1  0
 11 19  1  6
 11 20  1  0
 12 21  1  6
 12 22  1  0
 12 23  1  0
M  END
