1SJ0_E4D_A_600
     RDKit          3D

 62 66  0  0  0  0  0  0  0  0999 V2000
   29.3593   -1.9922   26.9961 C   0  0  2  0  0  0  0  0  0  0  0  0
   28.7995   -1.3954   25.6915 C   0  0  1  0  0  0  0  0  0  0  0  0
   27.9343   -0.2947   25.9476 O   0  0  0  0  0  0  0  0  0  0  0  0
   26.9022   -0.3170   26.8885 C   0  0  0  0  0  0  0  0  0  0  0  0
   25.9593    0.7170   26.8595 C   0  0  0  0  0  0  0  0  0  0  0  0
   24.9416    0.7755   27.8136 C   0  0  0  0  0  0  0  0  0  0  0  0
   24.8630   -0.1949   28.8145 C   0  0  0  0  0  0  0  0  0  0  0  0
   23.8492   -0.1201   29.7668 O   0  0  0  0  0  0  0  0  0  0  0  0
   25.8045   -1.2315   28.8529 C   0  0  0  0  0  0  0  0  0  0  0  0
   26.8198   -1.3089   27.8898 C   0  0  0  0  0  0  0  0  0  0  0  0
   28.0058   -2.6631   28.0312 S   0  0  0  0  0  0  0  0  0  0  0  0
   30.3087   -1.0704   27.7511 C   0  0  0  0  0  0  0  0  0  0  0  0
   29.8587   -0.1254   28.6944 C   0  0  0  0  0  0  0  0  0  0  0  0
   30.7615    0.7366   29.3238 C   0  0  0  0  0  0  0  0  0  0  0  0
   32.1257    0.6763   29.0172 C   0  0  0  0  0  0  0  0  0  0  0  0
   33.0324    1.5333   29.6367 O   0  0  0  0  0  0  0  0  0  0  0  0
   32.5828   -0.2512   28.0790 C   0  0  0  0  0  0  0  0  0  0  0  0
   31.6839   -1.1160   27.4495 C   0  0  0  0  0  0  0  0  0  0  0  0
   29.9081   -0.9825   24.7474 C   0  0  0  0  0  0  0  0  0  0  0  0
   30.0518   -1.6334   23.5120 C   0  0  0  0  0  0  0  0  0  0  0  0
   31.1053   -1.3044   22.6544 C   0  0  0  0  0  0  0  0  0  0  0  0
   32.0418   -0.3200   23.0236 C   0  0  0  0  0  0  0  0  0  0  0  0
   31.9066    0.3163   24.2623 C   0  0  0  0  0  0  0  0  0  0  0  0
   30.8539   -0.0112   25.1201 C   0  0  0  0  0  0  0  0  0  0  0  0
   33.1221    0.0490   22.2048 O   0  0  0  0  0  0  0  0  0  0  0  0
   34.4590   -0.4378   22.3227 C   0  0  1  0  0  0  0  0  0  0  0  0
   34.4538   -1.9305   22.7087 C   0  0  1  0  0  0  0  0  0  0  0  0
   34.6199   -2.8485   21.5613 N   0  0  0  0  0  0  0  0  0  0  0  0
   34.8742   -4.2519   21.9573 C   0  0  1  0  0  0  0  0  0  0  0  0
   34.8817   -5.1679   20.7306 C   0  0  1  0  0  0  0  0  0  0  0  0
   33.5210   -5.1500   20.0086 C   0  0  2  0  0  0  0  0  0  0  0  0
   32.7097   -3.8720   20.2854 C   0  0  1  0  0  0  0  0  0  0  0  0
   33.6286   -2.6563   20.4717 C   0  0  2  0  0  0  0  0  0  0  0  0
   29.9341   -2.8989   26.7031 H   0  0  0  0  0  0  0  0  0  0  0  0
   28.1914   -2.1818   25.1896 H   0  0  0  0  0  0  0  0  0  0  0  0
   26.0224    1.4841   26.0980 H   0  0  0  0  0  0  0  0  0  0  0  0
   24.2191    1.5811   27.7803 H   0  0  0  0  0  0  0  0  0  0  0  0
   23.4834   -0.9508   30.2173 H   0  0  0  0  0  0  0  0  0  0  0  0
   25.7443   -1.9807   29.6326 H   0  0  0  0  0  0  0  0  0  0  0  0
   28.8176   -0.0423   28.9566 H   0  0  0  0  0  0  0  0  0  0  0  0
   30.3980    1.4545   30.0481 H   0  0  0  0  0  0  0  0  0  0  0  0
   32.8349    2.5207   29.7502 H   0  0  0  0  0  0  0  0  0  0  0  0
   33.6359   -0.2988   27.8327 H   0  0  0  0  0  0  0  0  0  0  0  0
   32.0620   -1.8145   26.7131 H   0  0  0  0  0  0  0  0  0  0  0  0
   29.3508   -2.4038   23.2153 H   0  0  0  0  0  0  0  0  0  0  0  0
   31.1822   -1.8285   21.7133 H   0  0  0  0  0  0  0  0  0  0  0  0
   32.6263    1.0666   24.5645 H   0  0  0  0  0  0  0  0  0  0  0  0
   30.7869    0.4838   26.0809 H   0  0  0  0  0  0  0  0  0  0  0  0
   34.9402   -0.3145   21.3324 H   0  0  0  0  0  0  0  0  0  0  0  0
   35.0291    0.1834   23.0427 H   0  0  0  0  0  0  0  0  0  0  0  0
   35.2617   -2.1297   23.4444 H   0  0  0  0  0  0  0  0  0  0  0  0
   33.5000   -2.1611   23.2320 H   0  0  0  0  0  0  0  0  0  0  0  0
   35.8641   -4.3176   22.4585 H   0  0  0  0  0  0  0  0  0  0  0  0
   34.1037   -4.6218   22.6656 H   0  0  0  0  0  0  0  0  0  0  0  0
   35.6764   -4.8230   20.0328 H   0  0  0  0  0  0  0  0  0  0  0  0
   35.1292   -6.2066   21.0394 H   0  0  0  0  0  0  0  0  0  0  0  0
   32.9193   -6.0285   20.3287 H   0  0  0  0  0  0  0  0  0  0  0  0
   33.6938   -5.2478   18.9144 H   0  0  0  0  0  0  0  0  0  0  0  0
   32.0087   -3.6859   19.4433 H   0  0  0  0  0  0  0  0  0  0  0  0
   32.1011   -4.0113   21.2050 H   0  0  0  0  0  0  0  0  0  0  0  0
   34.1840   -2.4871   19.5241 H   0  0  0  0  0  0  0  0  0  0  0  0
   33.0070   -1.7486   20.6295 H   0  0  0  0  0  0  0  0  0  0  0  0
  1  2  1  0
  2  3  1  0
  3  4  1  0
  4  5  2  0
  5  6  1  0
  6  7  2  0
  7  8  1  0
  7  9  1  0
  4 10  1  0
  9 10  2  0
  1 11  1  0
 10 11  1  0
  1 12  1  0
 12 13  2  0
 13 14  1  0
 14 15  2  0
 15 16  1  0
 15 17  1  0
 12 18  1  0
 17 18  2  0
  2 19  1  0
 19 20  2  0
 20 21  1  0
 21 22  2  0
 22 23  1  0
 19 24  1  0
 23 24  2  0
 22 25  1  0
 25 26  1  0
 26 27  1  0
 27 28  1  0
 28 29  1  0
 29 30  1  0
 30 31  1  0
 31 32  1  0
 28 33  1  0
 32 33  1  0
  1 34  1  6
  2 35  1  6
  5 36  1  0
  6 37  1  0
  8 38  1  0
  9 39  1  0
 13 40  1  0
 14 41  1  0
 16 42  1  0
 17 43  1  0
 18 44  1  0
 20 45  1  0
 21 46  1  0
 23 47  1  0
 24 48  1  0
 26 49  1  6
 26 50  1  0
 27 51  1  1
 27 52  1  0
 29 53  1  1
 29 54  1  0
 30 55  1  6
 30 56  1  0
 31 57  1  1
 31 58  1  0
 32 59  1  6
 32 60  1  0
 33 61  1  6
 33 62  1  0
M  END
