7ULC_56B_A_401
     RDKit          3D

 33 36  0  0  0  0  0  0  0  0999 V2000
   47.9110    8.6134   58.3878 N   0  0  0  0  0  0  0  0  0  0  0  0
   47.6865    6.1590   57.5397 C   0  0  1  0  0  0  0  0  0  0  0  0
   47.5925    5.2864   58.6697 O   0  0  0  0  0  0  0  0  0  0  0  0
   47.3004    8.9101   52.6423 P   0  0  1  0  0  0  0  0  0  0  0  0
   48.5122    7.3841   57.8487 C   0  0  1  0  0  0  0  0  0  0  0  0
   44.3908   10.9705   59.8505 N   0  0  0  0  0  0  0  0  0  0  0  0
   42.9120   14.3165   59.7471 O   0  0  0  0  0  0  0  0  0  0  0  0
   46.6917    9.1356   58.1679 C   0  0  0  0  0  0  0  0  0  0  0  0
   49.9614    9.3324   59.5078 N   0  0  0  0  0  0  0  0  0  0  0  0
   43.4206   14.8448   62.3367 O   0  0  0  0  0  0  0  0  0  0  0  0
   46.5946   10.3790   58.7908 C   0  0  0  0  0  0  0  0  0  0  0  0
   51.8012   10.1706   60.6491 N   0  0  0  0  0  0  0  0  0  0  0  0
   47.6475   12.4090   61.0339 O   0  0  0  0  0  0  0  0  0  0  0  0
   45.3764   11.2776   58.7969 C   0  0  0  0  0  0  0  0  0  0  0  0
   49.8267   11.4399   60.6003 N   0  0  0  0  0  0  0  0  0  0  0  0
   48.9490    7.8418   56.5305 O   0  0  0  0  0  0  0  0  0  0  0  0
   43.2876   11.9520   60.0552 C   0  0  2  0  0  0  0  0  0  0  0  0
   48.2595    7.9751   53.5326 O   0  0  0  0  0  0  0  0  0  0  0  0
   43.7942   13.3695   60.3545 C   0  0  2  0  0  0  0  0  0  0  0  0
   46.1445    8.1339   52.0678 O   0  0  0  0  0  0  0  0  0  0  0  0
   43.7706   13.5318   61.8812 C   0  0  2  0  0  0  0  0  0  0  0  0
   42.7426   12.5035   62.2800 C   0  0  0  0  0  0  0  0  0  0  0  0
   46.7717   10.0518   53.4844 O   0  0  0  0  0  0  0  0  0  0  0  0
   42.4908   11.6497   61.2957 C   0  0  0  0  0  0  0  0  0  0  0  0
   49.7503    5.0137   56.8354 O   0  0  0  0  0  0  0  0  0  0  0  0
   47.9163   10.5528   59.4248 C   0  0  0  0  0  0  0  0  0  0  0  0
   48.6760    9.4476   59.0885 C   0  0  0  0  0  0  0  0  0  0  0  0
   50.5213   10.3265   60.2355 C   0  0  0  0  0  0  0  0  0  0  0  0
   48.4766   11.7237   60.1098 C   0  0  0  0  0  0  0  0  0  0  0  0
   48.8433    6.7993   55.5547 C   0  0  2  0  0  0  0  0  0  0  0  0
   47.7596    7.0771   54.5111 C   0  0  0  0  0  0  0  0  0  0  0  0
   48.5035    5.5836   56.3840 C   0  0  2  0  0  0  0  0  0  0  0  0
   48.1776    9.4097   51.5230 O   0  0  0  0  0  0  0  0  0  0  0  0
  2  3  1  1
  5  1  1  6
  2  5  1  0
  1  8  1  0
  8 11  2  0
 11 14  1  0
  6 14  1  0
  5 16  1  0
 17  6  1  1
  4 18  1  0
 17 19  1  0
 19  7  1  6
  4 20  1  6
 21 10  1  6
 19 21  1  0
 21 22  1  0
  4 23  2  0
 22 24  2  0
 17 24  1  0
 11 26  1  0
  9 27  1  0
 26 27  2  0
  1 27  1  0
 12 28  1  0
 15 28  1  0
  9 28  2  0
 15 29  1  0
 13 29  2  0
 26 29  1  0
 16 30  1  0
 30 31  1  6
 18 31  1  0
 32 25  1  1
 30 32  1  0
  2 32  1  0
  4 33  1  0
M  END
