7MGT_ZD4_A_403
     RDKit          3D

 28 30  0  0  0  0  0  0  0  0999 V2000
   45.7116   34.1532   11.1832 C   0  0  2  0  0  0  0  0  0  0  0  0
   46.4613   31.6906    7.5647 C   0  0  0  0  0  0  0  0  0  0  0  0
   45.0464   33.2359   12.1881 C   0  0  1  0  0  0  0  0  0  0  0  0
   44.0808   34.1949   12.8632 C   0  0  1  0  0  0  0  0  0  0  0  0
   46.9714   32.8565    9.5254 C   0  0  0  0  0  0  0  0  0  0  0  0
   44.6606   35.5392   12.4753 C   0  0  1  0  0  0  0  0  0  0  0  0
   48.2990   32.4924    9.3386 C   0  0  0  0  0  0  0  0  0  0  0  0
   44.7799   36.4368   13.7038 C   0  0  0  0  0  0  0  0  0  0  0  0
   48.7120   31.7262    8.2641 C   0  0  0  0  0  0  0  0  0  0  0  0
   48.1889   33.6818   11.1584 C   0  0  0  0  0  0  0  0  0  0  0  0
   47.7544   31.3455    7.3976 N   0  0  0  0  0  0  0  0  0  0  0  0
   46.0527   32.4396    8.6136 N   0  0  0  0  0  0  0  0  0  0  0  0
   50.0768   31.3799    8.1158 N   0  0  0  0  0  0  0  0  0  0  0  0
   49.0100   33.0078   10.3442 N   0  0  0  0  0  0  0  0  0  0  0  0
   46.9284   33.5874   10.6507 N   0  0  0  0  0  0  0  0  0  0  0  0
   45.4882   36.7663   16.3311 O   0  0  0  0  0  0  0  0  0  0  0  0
   49.3428   34.3605   13.7763 O   0  0  0  0  0  0  0  0  0  0  0  0
   44.3694   32.1899   11.5673 O   0  0  0  0  0  0  0  0  0  0  0  0
   47.6437   38.1672   15.6195 O   0  0  0  0  0  0  0  0  0  0  0  0
   50.3518   35.2803   16.1417 O   0  0  0  0  0  0  0  0  0  0  0  0
   42.7949   34.0999   12.2899 O   0  0  0  0  0  0  0  0  0  0  0  0
   47.5952   35.4311   15.6690 O   0  0  0  0  0  0  0  0  0  0  0  0
   49.3493   36.8760   14.3875 O   0  0  0  0  0  0  0  0  0  0  0  0
   45.9194   35.2972   11.9163 O   0  0  0  0  0  0  0  0  0  0  0  0
   46.0867   36.8605   13.8032 O   0  0  0  0  0  0  0  0  0  0  0  0
   46.6674   36.8035   15.3874 P   0  0  1  0  0  5  0  0  0  0  0  0
   49.1266   35.5100   14.9948 P   0  0  2  0  0  5  0  0  0  0  0  0
   45.3116   31.1210    6.3491 Cl  0  0  0  0  0  0  0  0  0  0  0  0
  1  3  1  0
  3  4  1  0
  4  6  1  0
  5  7  1  0
  6  8  1  0
  7  9  2  0
  2 11  2  0
  9 11  1  0
  2 12  1  0
  5 12  2  0
  9 13  1  0
  7 14  1  0
 10 14  2  0
  5 15  1  0
  1 15  1  1
 10 15  1  0
  3 18  1  6
  4 21  1  6
  6 24  1  1
  1 24  1  0
  8 25  1  6
 16 26  2  0
 26 22  1  0
 26 19  1  1
 25 26  1  0
 23 27  2  0
 27 17  1  6
 22 27  1  0
 20 27  1  0
  2 28  1  0
M  END
$$$$
