
     RDKit          3D

 51 56  0  0  0  0  0  0  0  0999 V2000
   19.2983    4.7822   11.7311 N   0  0  0  0  0  0  0  0  0  0  0  0
   17.2255    8.1426   15.4315 C   0  0  1  0  0  0  0  0  0  0  0  0
   18.4468   10.8010   13.1416 C   0  0  0  0  0  0  0  0  0  0  0  0
   17.3386    5.5666   12.5784 N   0  0  0  0  0  0  0  0  0  0  0  0
   17.0654   10.4711   13.2432 C   0  0  0  0  0  0  0  0  0  0  0  0
   18.6934    7.8183   13.6407 O   0  0  0  0  0  0  0  0  0  0  0  0
   20.7298    4.7004   11.9822 C   0  0  0  0  0  0  0  0  0  0  0  0
   15.3881   10.9812   10.0191 O   0  0  0  0  0  0  0  0  0  0  0  0
   19.3030    8.8443   14.4659 C   0  0  2  0  0  0  0  0  0  0  0  0
   18.4553    8.9843   15.7461 C   0  0  2  0  0  0  0  0  0  0  0  0
   19.4677   10.0332   13.6611 N   0  0  0  0  0  0  0  0  0  0  0  0
   17.8243    7.0818   14.5142 C   0  0  2  0  0  0  0  0  0  0  0  0
   15.9883    8.0449   10.4992 O   0  0  0  0  0  0  0  0  0  0  0  0
   16.7825    6.2931   13.7186 C   0  0  0  0  0  0  0  0  0  0  0  0
   19.1331    8.3792   16.8853 O   0  0  0  0  0  0  0  0  0  0  0  0
   18.4236    4.7396   12.7884 C   0  0  0  0  0  0  0  0  0  0  0  0
   14.3591    8.2264   12.7555 N   0  0  0  0  0  0  0  0  0  0  0  0
   22.8194    3.7438   10.9916 N   0  0  0  0  0  0  0  0  0  0  0  0
   21.3858    3.5523   11.1955 C   0  0  0  0  0  0  0  0  0  0  0  0
   18.5602    4.0231   13.7671 O   0  0  0  0  0  0  0  0  0  0  0  0
   15.9983    9.9524   13.4290 C   0  0  0  0  0  0  0  0  0  0  0  0
   14.8757    9.0850   13.8193 C   0  0  0  0  0  0  0  0  0  0  0  0
   13.9805    8.9436   11.5325 C   0  0  0  0  0  0  0  0  0  0  0  0
   14.6922    8.6276   10.1999 C   0  0  1  0  0  0  0  0  0  0  0  0
   16.7766    8.1397    9.2932 C   0  0  2  0  0  0  0  0  0  0  0  0
   16.2223    9.3123    8.4704 C   0  0  1  0  0  0  0  0  0  0  0  0
   15.0205    9.8028    9.2821 C   0  0  2  0  0  0  0  0  0  0  0  0
   15.7111    6.2362    8.0809 C   0  0  0  0  0  0  0  0  0  0  0  0
   17.3460    4.8928    7.8145 C   0  0  0  0  0  0  0  0  0  0  0  0
   17.8657    5.9859    8.4949 C   0  0  0  0  0  0  0  0  0  0  0  0
   19.8983    5.0920    8.5550 C   0  0  0  0  0  0  0  0  0  0  0  0
   18.2413    3.8550    7.5070 C   0  0  0  0  0  0  0  0  0  0  0  0
   13.4969    7.0849   13.1002 C   0  0  0  0  0  0  0  0  0  0  0  0
   12.2048    7.4010   13.8308 C   0  0  0  0  0  0  0  0  0  0  0  0
   20.2791   11.7929   12.6589 C   0  0  0  0  0  0  0  0  0  0  0  0
   20.6485   10.6384   13.3290 C   0  0  0  0  0  0  0  0  0  0  0  0
   22.8101   11.0846   13.1138 C   0  0  0  0  0  0  0  0  0  0  0  0
   21.3203   12.6311   12.2270 C   0  0  0  0  0  0  0  0  0  0  0  0
   18.9063   11.8780   12.5360 N   0  0  0  0  0  0  0  0  0  0  0  0
   21.8976   10.2204   13.5968 N   0  0  0  0  0  0  0  0  0  0  0  0
   22.5984   12.2409   12.4526 N   0  0  0  0  0  0  0  0  0  0  0  0
   21.1099   13.8332   11.5686 N   0  0  0  0  0  0  0  0  0  0  0  0
   16.8022    6.8320    8.6668 N   0  0  0  0  0  0  0  0  0  0  0  0
   15.9984    5.0534    7.5768 N   0  0  0  0  0  0  0  0  0  0  0  0
   19.1395    6.1576    8.8883 N   0  0  0  0  0  0  0  0  0  0  0  0
   19.5292    3.9695    7.9041 N   0  0  0  0  0  0  0  0  0  0  0  0
   17.8628    2.7085    6.8203 N   0  0  0  0  0  0  0  0  0  0  0  0
   16.6609    7.6097   16.6236 O   0  0  0  0  0  0  0  0  0  0  0  0
   17.2111   10.3504    8.3529 O   0  0  0  0  0  0  0  0  0  0  0  0
   12.3376    7.6073   15.1558 O   0  0  0  0  0  0  0  0  0  0  0  0
   11.1024    7.4718   13.3029 O   0  0  0  0  0  0  0  0  0  0  0  0
  3  5  1  0
  1  7  1  0
  6  9  1  0
  9 10  1  0
  2 10  1  0
  3 11  4  0
  9 11  1  6
  6 12  1  0
  2 12  1  0
  4 14  1  0
 12 14  1  6
 10 15  1  1
  1 16  1  0
  4 16  1  0
 18 19  1  0
  7 19  1  0
 16 20  2  0
  5 21  3  0
 17 22  1  0
 21 22  1  0
 17 23  1  0
 13 24  1  0
 24 23  1  1
 13 25  1  0
 25 26  1  0
 26 27  1  0
 27  8  1  1
 24 27  1  0
 29 30  4  0
 29 32  4  0
 17 33  1  0
 33 34  1  0
 35 36  4  0
 11 36  4  0
 35 38  4  0
 35 39  4  0
  3 39  4  0
 37 40  4  0
 36 40  4  0
 38 41  4  0
 37 41  4  0
 38 42  1  0
 28 43  4  0
 30 43  4  0
 25 43  1  6
 29 44  4  0
 28 44  4  0
 30 45  4  0
 31 45  4  0
 32 46  4  0
 31 46  4  0
 32 47  1  0
  2 48  1  1
 26 49  1  1
 34 50  1  0
 34 51  2  0
M  END
