8CGC_LMR_A_1001
     RDKit          3D

  9  8  0  0  0  0  0  0  0  0999 V2000
   49.2880   44.3023   -9.6322 C   0  0  0  0  0  0  0  0  0  0  0  0
   48.3895   44.6458  -10.4857 O   0  0  0  0  0  0  0  0  0  0  0  0
   50.5835   44.2747  -10.0582 O   0  0  0  0  0  0  0  0  0  0  0  0
   48.8006   43.9822   -8.2824 C   0  0  1  0  0  0  0  0  0  0  0  0
   48.0574   45.1043   -7.8286 O   0  0  0  0  0  0  0  0  0  0  0  0
   47.9519   42.7481   -8.2431 C   0  0  0  0  0  0  0  0  0  0  0  0
   47.5970   42.3629   -6.8747 C   0  0  0  0  0  0  0  0  0  0  0  0
   46.7555   41.3364   -6.4956 O   0  0  0  0  0  0  0  0  0  0  0  0
   48.1309   43.0475   -5.9209 O   0  0  0  0  0  0  0  0  0  0  0  0
  1  2  2  0
  1  3  1  0
  1  4  1  0
  4  5  1  6
  4  6  1  0
  6  7  1  0
  7  8  1  0
  7  9  2  0
M  END
$$$$
