@<TRIPOS>MOLECULE
1OPK_P16_A_2
 45 48 0 0 0
SMALL
GASTEIGER

@<TRIPOS>ATOM
      1 O          49.9800   11.0930   14.9440 O.3     1  UNL1       -0.3904
      2 C          49.5960   11.8940   13.8620 C.3     1  UNL1        0.0693
      3 C          49.2210   13.3090   14.2740 C.ar    1  UNL1       -0.0204
      4 C          50.1470   14.3930   14.0730 C.ar    1  UNL1       -0.0563
      5 C          49.8040   15.7040   14.4610 C.ar    1  UNL1       -0.0597
      6 C          48.5350   15.9740   15.0610 C.ar    1  UNL1       -0.0405
      7 C          47.6040   14.9030   15.2640 C.ar    1  UNL1        0.0339
      8 N          46.3300   15.0460   15.8740 N.pl3   1  UNL1       -0.2836
      9 C          45.8970   16.0610   16.6810 C.ar    1  UNL1        0.2214
     10 N          44.6140   15.9020   17.1770 N.ar    1  UNL1       -0.2219
     11 C          44.1550   16.8600   18.0020 C.ar    1  UNL1        0.0418
     12 C          44.9250   17.9970   18.3770 C.ar    1  UNL1        0.0365
     13 C          44.4520   19.0260   19.2590 C.ar    1  UNL1       -0.0366
     14 C          45.2430   20.0910   19.5760 C.ar    1  UNL1        0.0502
     15 C          46.6220   20.2330   18.9780 C.ar    1  UNL1        0.2604
     16 O          47.4050   21.1590   19.1990 O.2     1  UNL1       -0.2670
     17 N          47.0620   19.1770   18.1030 N.ar    1  UNL1       -0.2953
     18 C          46.2420   18.0920   17.7880 C.ar    1  UNL1        0.1482
     19 N          46.7060   17.1150   16.9680 N.ar    1  UNL1       -0.1961
     20 C          48.4070   19.2460   17.4790 C.3     1  UNL1        0.0167
     21 C          44.7990   21.1600   20.4950 C.ar    1  UNL1        0.0239
     22 C          44.2640   22.3890   20.0170 C.ar    1  UNL1        0.0502
     23 CL         44.0600   22.6440   18.2990 Cl      1  UNL1       -0.0829
     24 C          43.8570   23.4190   20.9290 C.ar    1  UNL1       -0.0427
     25 C          44.0140   23.2320   22.3330 C.ar    1  UNL1       -0.0590
     26 C          44.5430   22.0100   22.8440 C.ar    1  UNL1       -0.0427
     27 C          44.9430   20.9980   21.9160 C.ar    1  UNL1        0.0502
     28 CL         45.5840   19.5110   22.5540 Cl      1  UNL1       -0.0829
     29 C          47.9620   13.5700   14.8660 C.ar    1  UNL1       -0.0351
     30 H          50.2072   10.2057   14.6248 H       1  UNL1        0.2098
     31 H          48.7508   11.4421   13.3862 H       1  UNL1        0.0607
     32 H          50.4354   11.9645   13.2022 H       1  UNL1        0.0607
     33 H          51.0668   14.2092   13.6426 H       1  UNL1        0.0621
     34 H          50.4739   16.4745   14.3108 H       1  UNL1        0.0618
     35 H          48.2903   16.9350   15.3466 H       1  UNL1        0.0636
     36 H          45.6806   14.3282   15.6943 H       1  UNL1        0.1550
     37 H          43.1997   16.7663   18.3809 H       1  UNL1        0.0838
     38 H          43.5025   18.9592   19.6578 H       1  UNL1        0.0633
     39 H          48.9115   20.1276   17.8155 H       1  UNL1        0.0457
     40 H          48.3050   19.2778   16.4143 H       1  UNL1        0.0457
     41 H          48.9740   18.3823   17.7573 H       1  UNL1        0.0457
     42 H          43.4502   24.2960   20.5680 H       1  UNL1        0.0632
     43 H          43.7432   23.9855   22.9841 H       1  UNL1        0.0618
     44 H          44.6351   21.8594   23.8608 H       1  UNL1        0.0632
     45 H          47.2955   12.7959   15.0129 H       1  UNL1        0.0639
@<TRIPOS>BOND
     1     1     2    1
     2     2     3    1
     3     3     4   ar
     4     4     5   ar
     5     5     6   ar
     6     6     7   ar
     7     7     8    1
     8     8     9    1
     9     9    10   ar
    10    10    11   ar
    11    11    12   ar
    12    12    13   ar
    13    13    14   ar
    14    14    15   ar
    15    15    16    2
    16    15    17   ar
    17    12    18   ar
    18    17    18   ar
    19     9    19   ar
    20    18    19   ar
    21    17    20    1
    22    14    21    1
    23    21    22   ar
    24    22    23    1
    25    22    24   ar
    26    24    25   ar
    27    25    26   ar
    28    21    27   ar
    29    26    27   ar
    30    27    28    1
    31     3    29   ar
    32     7    29   ar
    33     1    30    1
    34     2    31    1
    35     2    32    1
    36     4    33    1
    37     5    34    1
    38     6    35    1
    39     8    36    1
    40    11    37    1
    41    13    38    1
    42    20    39    1
    43    20    40    1
    44    20    41    1
    45    24    42    1
    46    25    43    1
    47    26    44    1
    48    29    45    1
