@<TRIPOS>MOLECULE
1OPK_P16_A_2
 45 48 0 0 0
SMALL
GASTEIGER

@<TRIPOS>ATOM
      1 O          -3.6045   -0.7072    5.1572 O.3     1  UNL1       -0.3904
      2 C          -3.1280    0.3610    4.3885 C.3     1  UNL1        0.0693
      3 C          -1.6518    0.5155    4.6142 C.ar    1  UNL1       -0.0204
      4 C          -1.1758    1.3446    5.6412 C.ar    1  UNL1       -0.0563
      5 C           0.1964    1.4498    5.8804 C.ar    1  UNL1       -0.0597
      6 C           1.1027    0.7302    5.0978 C.ar    1  UNL1       -0.0405
      7 C           0.6456   -0.0966    4.0614 C.ar    1  UNL1        0.0339
      8 N           1.5969   -0.8414    3.2816 N.pl3   1  UNL1       -0.2836
      9 C           1.4516   -1.1090    1.8794 C.ar    1  UNL1        0.2214
     10 N           2.3079   -1.9696    1.2680 N.ar    1  UNL1       -0.2219
     11 C           2.2167   -2.2261   -0.0621 C.ar    1  UNL1        0.0418
     12 C           1.2320   -1.5934   -0.8274 C.ar    1  UNL1        0.0365
     13 C           1.1116   -1.8207   -2.1968 C.ar    1  UNL1       -0.0366
     14 C           0.1283   -1.1499   -2.9265 C.ar    1  UNL1        0.0502
     15 C          -0.7353   -0.2564   -2.2641 C.ar    1  UNL1        0.2604
     16 O          -1.6020    0.3717   -2.9349 O.2     1  UNL1       -0.2670
     17 N          -0.6330   -0.0627   -0.9060 N.ar    1  UNL1       -0.2953
     18 C           0.3517   -0.6994   -0.1896 C.ar    1  UNL1        0.1482
     19 N           0.4958   -0.4769    1.1461 N.ar    1  UNL1       -0.1961
     20 C          -1.5335    0.8832   -0.2229 C.3     1  UNL1        0.0167
     21 C           0.0164   -1.3838   -4.3837 C.ar    1  UNL1        0.0239
     22 C          -1.0399   -2.1635   -4.9014 C.ar    1  UNL1        0.0502
     23 CL         -2.2409   -2.9031   -3.8468 Cl      1  UNL1       -0.0829
     24 C          -1.1375   -2.3807   -6.2802 C.ar    1  UNL1       -0.0427
     25 C          -0.1935   -1.8305   -7.1485 C.ar    1  UNL1       -0.0590
     26 C           0.8555   -1.0600   -6.6449 C.ar    1  UNL1       -0.0427
     27 C           0.9678   -0.8332   -5.2687 C.ar    1  UNL1        0.0502
     28 CL          2.2969    0.1649   -4.6868 Cl      1  UNL1       -0.0829
     29 C          -0.7390   -0.2227    3.8440 C.ar    1  UNL1       -0.0351
     30 H          -4.5772   -0.7687    4.9698 H       1  UNL1        0.2098
     31 H          -3.3287    0.1704    3.3100 H       1  UNL1        0.0607
     32 H          -3.6581    1.2977    4.6732 H       1  UNL1        0.0607
     33 H          -1.8666    1.9030    6.2607 H       1  UNL1        0.0621
     34 H           0.5583    2.0885    6.6757 H       1  UNL1        0.0618
     35 H           2.1638    0.8223    5.2929 H       1  UNL1        0.0636
     36 H           2.4941   -1.1247    3.7370 H       1  UNL1        0.1550
     37 H           2.9141   -2.9176   -0.5182 H       1  UNL1        0.0838
     38 H           1.7830   -2.5089   -2.6985 H       1  UNL1        0.0633
     39 H          -1.0304    1.8676   -0.1194 H       1  UNL1        0.0457
     40 H          -1.8128    0.5072    0.7848 H       1  UNL1        0.0457
     41 H          -2.4863    1.0198   -0.7768 H       1  UNL1        0.0457
     42 H          -1.9450   -2.9805   -6.6806 H       1  UNL1        0.0632
     43 H          -0.2746   -2.0023   -8.2141 H       1  UNL1        0.0618
     44 H           1.5813   -0.6359   -7.3271 H       1  UNL1        0.0632
     45 H          -1.1117   -0.9085    3.0940 H       1  UNL1        0.0639
@<TRIPOS>BOND
     1     1     2    1
     2     2     3    1
     3     3     4   ar
     4     4     5   ar
     5     5     6   ar
     6     6     7   ar
     7     7     8    1
     8     8     9    1
     9     9    10   ar
    10    10    11   ar
    11    11    12   ar
    12    12    13   ar
    13    13    14   ar
    14    14    15   ar
    15    15    16    2
    16    15    17   ar
    17    12    18   ar
    18    17    18   ar
    19     9    19   ar
    20    18    19   ar
    21    17    20    1
    22    14    21    1
    23    21    22   ar
    24    22    23    1
    25    22    24   ar
    26    24    25   ar
    27    25    26   ar
    28    21    27   ar
    29    26    27   ar
    30    27    28    1
    31     3    29   ar
    32     7    29   ar
    33     1    30    1
    34     2    31    1
    35     2    32    1
    36     4    33    1
    37     5    34    1
    38     6    35    1
    39     8    36    1
    40    11    37    1
    41    13    38    1
    42    20    39    1
    43    20    40    1
    44    20    41    1
    45    24    42    1
    46    25    43    1
    47    26    44    1
    48    29    45    1
