1SJ0_E4D_A_600
     RDKit          3D

 33 37  0  0  0  0  0  0  0  0999 V2000
   30.6700  -11.0233   14.5896 C   0  0  2  0  0  0  0  0  0  0  0  0
   31.0139   -9.6025   14.3657 C   0  0  1  0  0  0  0  0  0  0  0  0
   30.0540   -9.1344   13.3812 O   0  0  0  0  0  0  0  0  0  0  0  0
   28.7074   -9.0170   13.7124 C   0  0  0  0  0  0  0  0  0  0  0  0
   27.8716   -8.0933   13.0741 C   0  0  0  0  0  0  0  0  0  0  0  0
   26.5373   -7.9741   13.4002 C   0  0  0  0  0  0  0  0  0  0  0  0
   25.9719   -8.7678   14.3761 C   0  0  0  0  0  0  0  0  0  0  0  0
   24.6347   -8.6668   14.7213 O   0  0  0  0  0  0  0  0  0  0  0  0
   26.8018   -9.6786   15.0034 C   0  0  0  0  0  0  0  0  0  0  0  0
   28.1186   -9.8159   14.7010 C   0  0  0  0  0  0  0  0  0  0  0  0
   29.1497  -11.0418   15.5627 S   0  0  0  0  0  0  0  0  0  0  0  0
   31.7197  -11.9258   15.0461 C   0  0  0  0  0  0  0  0  0  0  0  0
   33.0368  -11.5314   14.8576 C   0  0  0  0  0  0  0  0  0  0  0  0
   34.1002  -12.3256   15.2351 C   0  0  0  0  0  0  0  0  0  0  0  0
   33.8931  -13.5612   15.8236 C   0  0  0  0  0  0  0  0  0  0  0  0
   34.9631  -14.3588   16.2030 O   0  0  0  0  0  0  0  0  0  0  0  0
   32.5902  -13.9734   16.0203 C   0  0  0  0  0  0  0  0  0  0  0  0
   31.5402  -13.1582   15.6325 C   0  0  0  0  0  0  0  0  0  0  0  0
   30.8641   -8.6606   15.4839 C   0  0  0  0  0  0  0  0  0  0  0  0
   30.0078   -8.7296   16.5221 C   0  0  0  0  0  0  0  0  0  0  0  0
   29.9771   -7.7673   17.5088 C   0  0  0  0  0  0  0  0  0  0  0  0
   30.8286   -6.6606   17.4982 C   0  0  0  0  0  0  0  0  0  0  0  0
   31.6970   -6.5904   16.4440 C   0  0  0  0  0  0  0  0  0  0  0  0
   31.7298   -7.5499   15.4581 C   0  0  0  0  0  0  0  0  0  0  0  0
   30.7005   -5.7826   18.5231 O   0  0  0  0  0  0  0  0  0  0  0  0
   31.5099   -5.5352   19.6116 C   0  0  0  0  0  0  0  0  0  0  0  0
   32.3950   -4.3601   19.4622 C   0  0  0  0  0  0  0  0  0  0  0  0
   31.7133   -3.1244   19.1843 N   0  0  0  0  0  0  0  0  0  0  0  0
   30.2794   -3.2287   19.3412 C   0  0  0  0  0  0  0  0  0  0  0  0
   29.6727   -1.8459   19.2525 C   0  0  0  0  0  0  0  0  0  0  0  0
   30.0980   -0.9820   20.4025 C   0  0  0  0  0  0  0  0  0  0  0  0
   31.3953   -1.5480   20.9401 C   0  0  0  0  0  0  0  0  0  0  0  0
   32.2724   -1.9514   19.7477 C   0  0  0  0  0  0  0  0  0  0  0  0
  1  2  1  0
  2  3  1  0
  3  4  1  0
  4  5  2  0
  5  6  1  0
  6  7  2  0
  7  8  1  0
  7  9  1  0
  4 10  1  0
  9 10  2  0
  1 11  1  0
 10 11  1  0
  1 12  1  1
 12 13  2  0
 13 14  1  0
 14 15  2  0
 15 16  1  0
 15 17  1  0
 12 18  1  0
 17 18  2  0
  2 19  1  1
 19 20  2  0
 20 21  1  0
 21 22  2  0
 22 23  1  0
 19 24  1  0
 23 24  2  0
 22 25  1  0
 25 26  1  0
 26 27  1  0
 27 28  1  0
 28 29  1  0
 29 30  1  0
 30 31  1  0
 31 32  1  0
 28 33  1  0
 32 33  1  0
M  END
$$$$
