1SJ0_E4D_A_600
     RDKit          3D

 33 37  0  0  0  0  0  0  0  0999 V2000
   31.4353   -0.3516   28.1077 C   0  0  2  0  0  0  0  0  0  0  0  0
   31.5129   -1.7584   27.6580 C   0  0  1  0  0  0  0  0  0  0  0  0
   30.2575   -2.3565   28.0776 O   0  0  0  0  0  0  0  0  0  0  0  0
   29.0605   -1.9691   27.4827 C   0  0  0  0  0  0  0  0  0  0  0  0
   27.9638   -2.8354   27.4065 C   0  0  0  0  0  0  0  0  0  0  0  0
   26.7767   -2.4549   26.8175 C   0  0  0  0  0  0  0  0  0  0  0  0
   26.6248   -1.1953   26.2768 C   0  0  0  0  0  0  0  0  0  0  0  0
   25.4429   -0.7899   25.6801 O   0  0  0  0  0  0  0  0  0  0  0  0
   27.7111   -0.3434   26.3549 C   0  0  0  0  0  0  0  0  0  0  0  0
   28.8907   -0.6934   26.9295 C   0  0  0  0  0  0  0  0  0  0  0  0
   30.2764    0.4827   27.0034 S   0  0  0  0  0  0  0  0  0  0  0  0
   32.6798    0.3614   28.3680 C   0  0  0  0  0  0  0  0  0  0  0  0
   32.9538    1.4831   27.5984 C   0  0  0  0  0  0  0  0  0  0  0  0
   34.1153    2.2118   27.7537 C   0  0  0  0  0  0  0  0  0  0  0  0
   35.0640    1.8487   28.6940 C   0  0  0  0  0  0  0  0  0  0  0  0
   36.2314    2.5822   28.8493 O   0  0  0  0  0  0  0  0  0  0  0  0
   34.8115    0.7354   29.4704 C   0  0  0  0  0  0  0  0  0  0  0  0
   33.6385    0.0207   29.2952 C   0  0  0  0  0  0  0  0  0  0  0  0
   31.5716   -2.0306   26.2150 C   0  0  0  0  0  0  0  0  0  0  0  0
   30.5587   -2.0342   25.3262 C   0  0  0  0  0  0  0  0  0  0  0  0
   30.7603   -2.3080   23.9902 C   0  0  0  0  0  0  0  0  0  0  0  0
   32.0235   -2.5989   23.4706 C   0  0  0  0  0  0  0  0  0  0  0  0
   33.0510   -2.5960   24.3730 C   0  0  0  0  0  0  0  0  0  0  0  0
   32.8524   -2.3226   25.7070 C   0  0  0  0  0  0  0  0  0  0  0  0
   32.0922   -2.8535   22.1409 O   0  0  0  0  0  0  0  0  0  0  0  0
   33.1535   -2.8043   21.2620 C   0  0  0  0  0  0  0  0  0  0  0  0
   33.4339   -4.0798   20.5684 C   0  0  0  0  0  0  0  0  0  0  0  0
   32.3557   -4.5715   19.7532 N   0  0  0  0  0  0  0  0  0  0  0  0
   31.4707   -3.5203   19.3023 C   0  0  0  0  0  0  0  0  0  0  0  0
   30.5117   -4.0890   18.2799 C   0  0  0  0  0  0  0  0  0  0  0  0
   31.2256   -4.5173   17.0323 C   0  0  0  0  0  0  0  0  0  0  0  0
   32.6711   -4.7749   17.4019 C   0  0  0  0  0  0  0  0  0  0  0  0
   32.6974   -5.5096   18.7486 C   0  0  0  0  0  0  0  0  0  0  0  0
  1  2  1  0
  2  3  1  0
  3  4  1  0
  4  5  2  0
  5  6  1  0
  6  7  2  0
  7  8  1  0
  7  9  1  0
  4 10  1  0
  9 10  2  0
  1 11  1  0
 10 11  1  0
  1 12  1  6
 12 13  2  0
 13 14  1  0
 14 15  2  0
 15 16  1  0
 15 17  1  0
 12 18  1  0
 17 18  2  0
  2 19  1  6
 19 20  2  0
 20 21  1  0
 21 22  2  0
 22 23  1  0
 19 24  1  0
 23 24  2  0
 22 25  1  0
 25 26  1  0
 26 27  1  0
 27 28  1  0
 28 29  1  0
 29 30  1  0
 30 31  1  0
 31 32  1  0
 28 33  1  0
 32 33  1  0
M  END
$$$$
