1SJ0_E4D_A_600
     RDKit          3D

 33 37  0  0  0  0  0  0  0  0999 V2000
   31.4713   -0.2117   28.0173 C   0  0  2  0  0  0  0  0  0  0  0  0
   31.6527   -1.6348   27.6580 C   0  0  1  0  0  0  0  0  0  0  0  0
   30.4401   -2.2939   28.1104 O   0  0  0  0  0  0  0  0  0  0  0  0
   29.2231   -2.0317   27.4881 C   0  0  0  0  0  0  0  0  0  0  0  0
   28.1918   -2.9777   27.4633 C   0  0  0  0  0  0  0  0  0  0  0  0
   26.9852   -2.7213   26.8474 C   0  0  0  0  0  0  0  0  0  0  0  0
   26.7480   -1.5124   26.2274 C   0  0  0  0  0  0  0  0  0  0  0  0
   25.5448   -1.2314   25.6022 O   0  0  0  0  0  0  0  0  0  0  0  0
   27.7699   -0.5815   26.2550 C   0  0  0  0  0  0  0  0  0  0  0  0
   28.9670   -0.8089   26.8546 C   0  0  0  0  0  0  0  0  0  0  0  0
   30.2645    0.4660   26.8585 S   0  0  0  0  0  0  0  0  0  0  0  0
   32.6595    0.6038   28.2361 C   0  0  0  0  0  0  0  0  0  0  0  0
   33.7815   -0.0194   28.7638 C   0  0  0  0  0  0  0  0  0  0  0  0
   34.9466    0.6713   29.0277 C   0  0  0  0  0  0  0  0  0  0  0  0
   35.0435    2.0285   28.7738 C   0  0  0  0  0  0  0  0  0  0  0  0
   36.2156    2.7220   29.0394 O   0  0  0  0  0  0  0  0  0  0  0  0
   33.9386    2.6686   28.2489 C   0  0  0  0  0  0  0  0  0  0  0  0
   32.7809    1.9533   27.9930 C   0  0  0  0  0  0  0  0  0  0  0  0
   31.7421   -1.9924   26.2353 C   0  0  0  0  0  0  0  0  0  0  0  0
   30.9133   -1.6380   25.2337 C   0  0  0  0  0  0  0  0  0  0  0  0
   31.1207   -2.0486   23.9341 C   0  0  0  0  0  0  0  0  0  0  0  0
   32.2000   -2.8566   23.5703 C   0  0  0  0  0  0  0  0  0  0  0  0
   33.0405   -3.2168   24.5871 C   0  0  0  0  0  0  0  0  0  0  0  0
   32.8358   -2.8079   25.8850 C   0  0  0  0  0  0  0  0  0  0  0  0
   32.2941   -3.1955   22.2610 O   0  0  0  0  0  0  0  0  0  0  0  0
   32.7547   -4.3440   21.6526 C   0  0  0  0  0  0  0  0  0  0  0  0
   33.5464   -4.1116   20.4255 C   0  0  0  0  0  0  0  0  0  0  0  0
   32.7851   -3.6483   19.2965 N   0  0  0  0  0  0  0  0  0  0  0  0
   32.5890   -4.6732   18.2952 C   0  0  0  0  0  0  0  0  0  0  0  0
   31.6001   -4.1727   17.2657 C   0  0  0  0  0  0  0  0  0  0  0  0
   30.2352   -3.9834   17.8581 C   0  0  0  0  0  0  0  0  0  0  0  0
   30.4095   -3.8003   19.3509 C   0  0  0  0  0  0  0  0  0  0  0  0
   31.6232   -2.8909   19.5833 C   0  0  0  0  0  0  0  0  0  0  0  0
  1  2  1  0
  2  3  1  0
  3  4  1  0
  4  5  2  0
  5  6  1  0
  6  7  2  0
  7  8  1  0
  7  9  1  0
  4 10  1  0
  9 10  2  0
  1 11  1  0
 10 11  1  0
  1 12  1  6
 12 13  2  0
 13 14  1  0
 14 15  2  0
 15 16  1  0
 15 17  1  0
 12 18  1  0
 17 18  2  0
  2 19  1  6
 19 20  2  0
 20 21  1  0
 21 22  2  0
 22 23  1  0
 19 24  1  0
 23 24  2  0
 22 25  1  0
 25 26  1  0
 26 27  1  0
 27 28  1  0
 28 29  1  0
 29 30  1  0
 30 31  1  0
 31 32  1  0
 28 33  1  0
 32 33  1  0
M  END
$$$$
