1SJ0_E4D_A_600
     RDKit          3D

 33 37  0  0  0  0  0  0  0  0999 V2000
   30.6654   -1.5596   24.7901 C   0  0  2  0  0  0  0  0  0  0  0  0
   31.0900   -0.2332   25.2876 C   0  0  1  0  0  0  0  0  0  0  0  0
   29.8570    0.4453   25.6471 O   0  0  0  0  0  0  0  0  0  0  0  0
   29.1003    0.0030   26.7280 C   0  0  0  0  0  0  0  0  0  0  0  0
   28.2803    0.8729   27.4559 C   0  0  0  0  0  0  0  0  0  0  0  0
   27.5297    0.4380   28.5275 C   0  0  0  0  0  0  0  0  0  0  0  0
   27.5595   -0.8822   28.9253 C   0  0  0  0  0  0  0  0  0  0  0  0
   26.8150   -1.3429   29.9981 O   0  0  0  0  0  0  0  0  0  0  0  0
   28.3710   -1.7374   28.2029 C   0  0  0  0  0  0  0  0  0  0  0  0
   29.1198   -1.3345   27.1439 C   0  0  0  0  0  0  0  0  0  0  0  0
   30.1598   -2.5176   26.2342 S   0  0  0  0  0  0  0  0  0  0  0  0
   31.5321   -2.2548   23.8466 C   0  0  0  0  0  0  0  0  0  0  0  0
   32.8344   -1.7959   23.7079 C   0  0  0  0  0  0  0  0  0  0  0  0
   33.7239   -2.3729   22.8248 C   0  0  0  0  0  0  0  0  0  0  0  0
   33.3484   -3.4445   22.0332 C   0  0  0  0  0  0  0  0  0  0  0  0
   34.2438   -4.0239   21.1457 O   0  0  0  0  0  0  0  0  0  0  0  0
   32.0570   -3.9170   22.1550 C   0  0  0  0  0  0  0  0  0  0  0  0
   31.1830   -3.3206   23.0484 C   0  0  0  0  0  0  0  0  0  0  0  0
   31.9003   -0.1704   26.5121 C   0  0  0  0  0  0  0  0  0  0  0  0
   31.8144   -0.9491   27.6085 C   0  0  0  0  0  0  0  0  0  0  0  0
   32.6473   -0.7772   28.6935 C   0  0  0  0  0  0  0  0  0  0  0  0
   33.6323    0.2121   28.7285 C   0  0  0  0  0  0  0  0  0  0  0  0
   33.7186    1.0027   27.6160 C   0  0  0  0  0  0  0  0  0  0  0  0
   32.8886    0.8328   26.5316 C   0  0  0  0  0  0  0  0  0  0  0  0
   34.3864    0.2824   29.8528 O   0  0  0  0  0  0  0  0  0  0  0  0
   35.6923   -0.0894   30.0934 C   0  0  0  0  0  0  0  0  0  0  0  0
   36.6820    0.9926   29.9037 C   0  0  0  0  0  0  0  0  0  0  0  0
   38.0229    0.5429   29.6418 N   0  0  0  0  0  0  0  0  0  0  0  0
   38.7280    0.1555   30.8435 C   0  0  0  0  0  0  0  0  0  0  0  0
   40.0309   -0.5090   30.4571 C   0  0  0  0  0  0  0  0  0  0  0  0
   39.7975   -1.8073   29.7431 C   0  0  0  0  0  0  0  0  0  0  0  0
   38.4064   -1.7545   29.1479 C   0  0  0  0  0  0  0  0  0  0  0  0
   38.1903   -0.3544   28.5588 C   0  0  0  0  0  0  0  0  0  0  0  0
  1  2  1  0
  2  3  1  0
  3  4  1  0
  4  5  2  0
  5  6  1  0
  6  7  2  0
  7  8  1  0
  7  9  1  0
  4 10  1  0
  9 10  2  0
  1 11  1  0
 10 11  1  0
  1 12  1  1
 12 13  2  0
 13 14  1  0
 14 15  2  0
 15 16  1  0
 15 17  1  0
 12 18  1  0
 17 18  2  0
  2 19  1  1
 19 20  2  0
 20 21  1  0
 21 22  2  0
 22 23  1  0
 19 24  1  0
 23 24  2  0
 22 25  1  0
 25 26  1  0
 26 27  1  0
 27 28  1  0
 28 29  1  0
 29 30  1  0
 30 31  1  0
 31 32  1  0
 28 33  1  0
 32 33  1  0
M  END
$$$$
