1SQN_NDR_B_2001
     RDKit          3D

 48 51  0  0  0  0  0  0  0  0999 V2000
    1.0064   -0.9459   -2.5385 O   0  0  0  0  0  0  0  0  0  0  0  0
    1.9343   -0.5214   -1.8002 C   0  0  0  0  0  0  0  0  0  0  0  0
    3.2281   -0.0816   -2.4057 C   0  0  0  0  0  0  0  0  0  0  0  0
    1.7136   -0.3862   -0.3546 C   0  0  0  0  0  0  0  0  0  0  0  0
    2.6965    0.0001    0.4782 C   0  0  0  0  0  0  0  0  0  0  0  0
    2.3416    0.3098    1.9130 C   0  0  0  0  0  0  0  0  0  0  0  0
    4.0797    0.3917   -0.0493 C   0  0  2  0  0  0  0  0  0  0  0  0
    4.3729   -0.2861   -1.4136 C   0  0  0  0  0  0  0  0  0  0  0  0
    5.1848    0.0496    0.9969 C   0  0  2  0  0  0  0  0  0  0  0  0
    4.7985    0.6143    2.4008 C   0  0  1  0  0  0  0  0  0  0  0  0
    3.4845   -0.0364    2.8659 C   0  0  0  0  0  0  0  0  0  0  0  0
    6.5965    0.5311    0.5381 C   0  0  0  0  0  0  0  0  0  0  0  0
    7.6935    0.3378    1.6120 C   0  0  0  0  0  0  0  0  0  0  0  0
    7.2762    0.9584    2.9699 C   0  0  2  0  0  0  0  0  0  0  0  0
    5.9452    0.3169    3.3902 C   0  0  1  0  0  0  0  0  0  0  0  0
    7.1904    2.5152    2.8166 C   0  0  0  0  0  0  0  0  0  0  0  0
    8.1743    0.6232    4.2019 C   0  0  1  0  0  0  0  0  0  0  0  0
    9.2682    1.5062    4.2939 O   0  0  0  0  0  0  0  0  0  0  0  0
    7.2062    0.7940    5.4077 C   0  0  0  0  0  0  0  0  0  0  0  0
    5.7713    0.7110    4.8530 C   0  0  0  0  0  0  0  0  0  0  0  0
    8.6869   -0.7695    4.1684 C   0  0  0  0  0  0  0  0  0  0  0  0
    9.1036   -1.9008    4.1450 C   0  0  0  0  0  0  0  0  0  0  0  0
    3.4329   -0.6653   -3.3294 H   0  0  0  0  0  0  0  0  0  0  0  0
    3.1533    0.9935   -2.6768 H   0  0  0  0  0  0  0  0  0  0  0  0
    0.7217   -0.5935    0.0306 H   0  0  0  0  0  0  0  0  0  0  0  0
    1.4396   -0.2568    2.2344 H   0  0  0  0  0  0  0  0  0  0  0  0
    2.1076    1.3935    1.9943 H   0  0  0  0  0  0  0  0  0  0  0  0
    4.0731    1.4935   -0.2059 H   0  0  0  0  0  0  0  0  0  0  0  0
    5.2867    0.1464   -1.8713 H   0  0  0  0  0  0  0  0  0  0  0  0
    4.5377   -1.3770   -1.2675 H   0  0  0  0  0  0  0  0  0  0  0  0
    5.2389   -1.0608    1.0808 H   0  0  0  0  0  0  0  0  0  0  0  0
    4.6224    1.7086    2.3397 H   0  0  0  0  0  0  0  0  0  0  0  0
    3.5994   -1.1419    2.9232 H   0  0  0  0  0  0  0  0  0  0  0  0
    3.2133    0.3319    3.8785 H   0  0  0  0  0  0  0  0  0  0  0  0
    6.9169   -0.0562   -0.3476 H   0  0  0  0  0  0  0  0  0  0  0  0
    6.5547    1.5921    0.2157 H   0  0  0  0  0  0  0  0  0  0  0  0
    8.6436    0.7950    1.2602 H   0  0  0  0  0  0  0  0  0  0  0  0
    7.8711   -0.7543    1.7129 H   0  0  0  0  0  0  0  0  0  0  0  0
    6.0731   -0.7934    3.3914 H   0  0  0  0  0  0  0  0  0  0  0  0
    8.1756    2.9222    2.5041 H   0  0  0  0  0  0  0  0  0  0  0  0
    6.9104    3.0114    3.7686 H   0  0  0  0  0  0  0  0  0  0  0  0
    6.4627    2.8450    2.0529 H   0  0  0  0  0  0  0  0  0  0  0  0
    9.7143    1.3447    5.1672 H   0  0  0  0  0  0  0  0  0  0  0  0
    7.3535    1.7867    5.8878 H   0  0  0  0  0  0  0  0  0  0  0  0
    7.3683    0.0184    6.1897 H   0  0  0  0  0  0  0  0  0  0  0  0
    5.1772   -0.0511    5.4030 H   0  0  0  0  0  0  0  0  0  0  0  0
    5.2630    1.6966    4.9351 H   0  0  0  0  0  0  0  0  0  0  0  0
    9.4687   -2.8937    4.1241 H   0  0  0  0  0  0  0  0  0  0  0  0
  1  2  2  0
  2  3  1  0
  2  4  1  0
  4  5  2  0
  5  6  1  0
  5  7  1  0
  3  8  1  0
  7  8  1  0
  7  9  1  0
  9 10  1  0
  6 11  1  0
 10 11  1  0
  9 12  1  0
 12 13  1  0
 13 14  1  0
 10 15  1  0
 14 15  1  0
 14 16  1  6
 14 17  1  0
 17 18  1  0
 17 19  1  0
 15 20  1  0
 19 20  1  0
 17 21  1  6
 21 22  3  0
  3 23  1  0
  3 24  1  0
  4 25  1  0
  6 26  1  0
  6 27  1  0
  7 28  1  6
  8 29  1  0
  8 30  1  0
  9 31  1  1
 10 32  1  6
 11 33  1  0
 11 34  1  0
 12 35  1  0
 12 36  1  0
 13 37  1  0
 13 38  1  0
 15 39  1  1
 16 40  1  0
 16 41  1  0
 16 42  1  0
 18 43  1  0
 19 44  1  0
 19 45  1  0
 20 46  1  0
 20 47  1  0
 22 48  1  0
M  END
