7LOU_IFM_A_611
     RDKit          3D

 23 23  0  0  0  0  0  0  0  0999 V2000
  -13.8723    0.9594   63.7550 O   0  0  0  0  0  0  0  0  0  0  0  0
  -12.7137    0.7051   63.0017 C   0  0  1  0  0  0  0  0  0  0  0  0
  -11.9433    2.0245   62.7811 C   0  0  2  0  0  0  0  0  0  0  0  0
  -12.7060    2.9343   62.0280 O   0  0  0  0  0  0  0  0  0  0  0  0
  -10.5902    1.7584   62.0957 C   0  0  1  0  0  0  0  0  0  0  0  0
   -9.7804    0.8084   62.8691 N   0  0  0  0  0  0  0  0  0  0  0  0
  -10.4745   -0.4783   63.0175 C   0  0  1  0  0  0  0  0  0  0  0  0
  -11.8257   -0.3138   63.7503 C   0  0  2  0  0  0  0  0  0  0  0  0
  -12.5397   -1.6715   63.8824 C   0  0  2  0  0  0  0  0  0  0  0  0
  -13.9097   -1.5218   63.6287 O   0  0  0  0  0  0  0  0  0  0  0  0
  -14.1394    1.8968   63.5665 H   0  0  0  0  0  0  0  0  0  0  0  0
  -12.9910    0.2706   62.0107 H   0  0  0  0  0  0  0  0  0  0  0  0
  -11.7451    2.4890   63.7724 H   0  0  0  0  0  0  0  0  0  0  0  0
  -13.3372    2.4086   61.4697 H   0  0  0  0  0  0  0  0  0  0  0  0
  -10.7471    1.3651   61.0666 H   0  0  0  0  0  0  0  0  0  0  0  0
  -10.0337    2.7161   62.0036 H   0  0  0  0  0  0  0  0  0  0  0  0
   -9.5962    1.2090   63.8193 H   0  0  0  0  0  0  0  0  0  0  0  0
  -10.6312   -0.9353   62.0146 H   0  0  0  0  0  0  0  0  0  0  0  0
   -9.8191   -1.1666   63.5936 H   0  0  0  0  0  0  0  0  0  0  0  0
  -11.6268    0.0737   64.7754 H   0  0  0  0  0  0  0  0  0  0  0  0
  -12.3882   -2.0818   64.9067 H   0  0  0  0  0  0  0  0  0  0  0  0
  -12.1139   -2.3916   63.1486 H   0  0  0  0  0  0  0  0  0  0  0  0
  -14.3271   -2.3965   63.8422 H   0  0  0  0  0  0  0  0  0  0  0  0
  2  1  1  0
  2  3  1  0
  3  4  1  0
  3  5  1  0
  5  6  1  0
  6  7  1  0
  2  8  1  0
  7  8  1  0
  8  9  1  0
  9 10  1  0
  1 11  1  0
  2 12  1  6
  3 13  1  1
  4 14  1  0
  5 15  1  6
  5 16  1  0
  6 17  1  0
  7 18  1  6
  7 19  1  0
  8 20  1  1
  9 21  1  1
  9 22  1  0
 10 23  1  0
M  END
