6ZAE_ACV_A_403
     RDKit          3D

 24 23  0  0  0  0  0  0  0  0999 V2000
   51.2519   72.9241    3.3246 C   0  0  0  0  0  0  0  0  0  0  0  0
   51.4263   71.4445    3.6435 C   0  0  2  0  0  0  0  0  0  0  0  0
   50.7201   70.5944    2.5828 C   0  0  0  0  0  0  0  0  0  0  0  0
   50.7591   69.1045    2.8972 C   0  0  0  0  0  0  0  0  0  0  0  0
   51.3847   68.2663    1.7908 C   0  0  0  0  0  0  0  0  0  0  0  0
   51.5310   66.8189    2.1907 C   0  0  0  0  0  0  0  0  0  0  0  0
   51.0710   65.9346    1.3039 N   0  0  0  0  0  0  0  0  0  0  0  0
   50.0605   64.9428    1.6226 C   0  0  2  0  0  0  0  0  0  0  0  0
   50.7355   63.5895    1.8406 C   0  0  0  0  0  0  0  0  0  0  0  0
   50.9145   71.1708    4.9997 N   0  0  0  0  0  0  0  0  0  0  0  0
   52.0237   66.4843    3.2692 O   0  0  0  0  0  0  0  0  0  0  0  0
   49.0776   64.8069    0.4709 C   0  0  0  0  0  0  0  0  0  0  0  0
   49.6191   65.6308   -1.0471 S   0  0  0  0  0  0  0  0  0  0  0  0
   51.7958   63.3212    1.2816 O   0  0  0  0  0  0  0  0  0  0  0  0
   50.9077   73.1752    2.0955 O   0  0  0  0  0  0  0  0  0  0  0  0
   51.4198   73.7758    4.1743 O   0  0  0  0  0  0  0  0  0  0  0  0
   50.0993   62.7293    2.6355 N   0  0  0  0  0  0  0  0  0  0  0  0
   50.7491   61.5367    3.1438 C   0  0  1  0  0  0  0  0  0  0  0  0
   50.5311   61.4972    4.6436 C   0  0  0  0  0  0  0  0  0  0  0  0
   50.2192   60.2568    2.4618 C   0  0  1  0  0  0  0  0  0  0  0  0
   48.6915   60.2140    2.4923 C   0  0  0  0  0  0  0  0  0  0  0  0
   50.7410   60.1531    1.0260 C   0  0  0  0  0  0  0  0  0  0  0  0
   49.4228   61.6815    5.1105 O   0  0  0  0  0  0  0  0  0  0  0  0
   51.6042   61.2642    5.3415 O   0  0  0  0  0  0  0  0  0  0  0  0
  1  2  1  0
  2  3  1  0
  3  4  1  0
  4  5  1  0
  5  6  1  0
  6  7  1  0
  7  8  1  0
  8  9  1  0
  2 10  1  1
  6 11  2  0
  8 12  1  6
 12 13  1  0
  9 14  2  0
  1 15  1  0
  1 16  2  0
  9 17  1  0
 18 17  1  6
 18 19  1  0
 18 20  1  0
 20 21  1  6
 20 22  1  0
 19 23  2  0
 19 24  1  0
M  END
