1YV3_BIT_A_800
     RDKit          3D

 22 25  0  0  0  0  0  0  0  0999 V2000
   19.5621   51.4877   59.6004 O   0  0  0  0  0  0  0  0  0  0  0  0
   18.3990   51.7128   59.9445 C   0  0  0  0  0  0  0  0  0  0  0  0
   18.0941   52.9549   60.6802 C   0  0  0  0  0  0  0  0  0  0  0  0
   19.1236   53.8344   61.0196 C   0  0  0  0  0  0  0  0  0  0  0  0
   18.8158   55.0013   61.7103 C   0  0  0  0  0  0  0  0  0  0  0  0
   19.8403   55.9859   62.1086 C   0  0  0  0  0  0  0  0  0  0  0  0
   17.4979   55.2971   62.0636 C   0  0  0  0  0  0  0  0  0  0  0  0
   16.7920   53.2759   61.0454 C   0  0  0  0  0  0  0  0  0  0  0  0
   16.4744   54.4294   61.7300 C   0  0  0  0  0  0  0  0  0  0  0  0
   17.3309   50.7929   59.6458 C   0  0  2  0  0  0  0  0  0  0  0  0
   15.9602   51.2685   60.0732 C   0  0  0  0  0  0  0  0  0  0  0  0
   15.7639   52.3666   60.6933 N   0  0  0  0  0  0  0  0  0  0  0  0
   17.5788   49.5367   60.2364 O   0  0  0  0  0  0  0  0  0  0  0  0
   17.0053   50.5128   58.2028 C   0  0  0  0  0  0  0  0  0  0  0  0
   15.7868   49.5982   58.4132 C   0  0  0  0  0  0  0  0  0  0  0  0
   15.1214   50.2127   59.5441 N   0  0  0  0  0  0  0  0  0  0  0  0
   13.8398   49.8666   60.0833 C   0  0  0  0  0  0  0  0  0  0  0  0
   12.8998   49.2089   59.3295 C   0  0  0  0  0  0  0  0  0  0  0  0
   11.6447   48.8591   59.8267 C   0  0  0  0  0  0  0  0  0  0  0  0
   11.3736   49.2083   61.1428 C   0  0  0  0  0  0  0  0  0  0  0  0
   12.3125   49.8716   61.9140 C   0  0  0  0  0  0  0  0  0  0  0  0
   13.5624   50.2097   61.3894 C   0  0  0  0  0  0  0  0  0  0  0  0
  1  2  2  0
  2  3  1  0
  3  4  1  0
  4  5  2  0
  6  5  1  6
  5  7  1  0
  3  8  2  0
  7  9  2  0
  8  9  1  0
  2 10  1  0
 10 11  1  0
  8 12  1  0
 11 12  2  0
 10 13  1  1
 10 14  1  0
 14 15  1  1
 11 16  1  0
 15 16  1  1
 16 17  1  0
 17 18  2  0
 18 19  1  0
 19 20  2  0
 20 21  1  0
 17 22  1  0
 21 22  2  0
M  END
$$$$
