8C5M_MTA_A_7216
     RDKit          3D

 35 37  0  0  0  0  0  0  0  0999 V2000
   84.9226  -14.7676   -1.0363 C   0  0  2  0  0  0  0  0  0  0  0  0
   86.4369  -15.7777   -1.1116 S   0  0  0  0  0  0  0  0  0  0  0  0
   87.5240  -14.5735   -0.2604 C   0  0  1  0  0  0  0  0  0  0  0  0
   87.2133  -14.5068    1.2414 C   0  0  1  0  0  0  0  0  0  0  0  0
   86.9692  -13.1696    1.6103 O   0  0  0  0  0  0  0  0  0  0  0  0
   85.4915  -14.6037    2.8615 C   0  0  2  0  0  0  0  0  0  0  0  0
   86.0359  -15.1597    4.0333 O   0  0  0  0  0  0  0  0  0  0  0  0
   85.9902  -15.3258    1.6305 C   0  0  2  0  0  0  0  0  0  0  0  0
   86.3384  -16.6602    1.8968 O   0  0  0  0  0  0  0  0  0  0  0  0
   86.0333  -13.1835    2.6691 C   0  0  2  0  0  0  0  0  0  0  0  0
   84.9425  -12.2498    2.3766 N   0  0  0  0  0  0  0  0  0  0  0  0
   84.1931  -11.5583    3.2739 C   0  0  0  0  0  0  0  0  0  0  0  0
   83.1885  -10.8395    2.7004 N   0  0  0  0  0  0  0  0  0  0  0  0
   83.3332  -11.1192    1.3914 C   0  0  0  0  0  0  0  0  0  0  0  0
   82.5768  -10.6903    0.3065 C   0  0  0  0  0  0  0  0  0  0  0  0
   81.4698   -9.8028    0.4648 N   0  0  0  0  0  0  0  0  0  0  0  0
   82.9256  -11.1535   -0.9313 N   0  0  0  0  0  0  0  0  0  0  0  0
   83.9815  -12.0130   -1.1012 C   0  0  0  0  0  0  0  0  0  0  0  0
   84.7162  -12.4293   -0.0264 N   0  0  0  0  0  0  0  0  0  0  0  0
   84.3715  -11.9640    1.1984 C   0  0  0  0  0  0  0  0  0  0  0  0
   84.5882  -14.4969   -2.0583 H   0  0  0  0  0  0  0  0  0  0  0  0
   85.1376  -13.8366   -0.4731 H   0  0  0  0  0  0  0  0  0  0  0  0
   84.1187  -15.3252   -0.5121 H   0  0  0  0  0  0  0  0  0  0  0  0
   88.5681  -14.9296   -0.3881 H   0  0  0  0  0  0  0  0  0  0  0  0
   87.4696  -13.5622   -0.7167 H   0  0  0  0  0  0  0  0  0  0  0  0
   88.1039  -14.8628    1.8088 H   0  0  0  0  0  0  0  0  0  0  0  0
   84.3758  -14.6176    2.9042 H   0  0  0  0  0  0  0  0  0  0  0  0
   86.4673  -16.0147    3.7717 H   0  0  0  0  0  0  0  0  0  0  0  0
   85.2140  -15.2717    0.8313 H   0  0  0  0  0  0  0  0  0  0  0  0
   85.8378  -17.2158    1.2441 H   0  0  0  0  0  0  0  0  0  0  0  0
   86.5545  -12.8434    3.5924 H   0  0  0  0  0  0  0  0  0  0  0  0
   84.3651  -11.5837    4.3422 H   0  0  0  0  0  0  0  0  0  0  0  0
   80.4987  -10.1813    0.5241 H   0  0  0  0  0  0  0  0  0  0  0  0
   81.6125   -8.7700    0.5229 H   0  0  0  0  0  0  0  0  0  0  0  0
   84.2335  -12.3653   -2.0919 H   0  0  0  0  0  0  0  0  0  0  0  0
  1  2  1  0
  2  3  1  0
  4  3  1  0
  4  5  1  0
  6  7  1  0
  4  8  1  0
  6  8  1  0
  8  9  1  0
  5 10  1  0
  6 10  1  0
 10 11  1  0
 11 12  1  0
 12 13  2  0
 13 14  1  0
 14 15  2  0
 15 16  1  0
 15 17  1  0
 17 18  2  0
 18 19  1  0
 11 20  1  0
 14 20  1  0
 19 20  2  0
  1 21  1  6
  1 22  1  0
  1 23  1  0
  3 24  1  1
  3 25  1  0
  4 26  1  1
  6 27  1  1
  7 28  1  0
  8 29  1  6
  9 30  1  0
 10 31  1  1
 12 32  1  0
 16 33  1  0
 16 34  1  0
 18 35  1  0
M  END
