7P4V_DAT_A_201
     RDKit          3D

 26 28  0  0  0  0  0  0  0  0999 V2000
   32.4330   -9.4638    7.8753 P   0  0  2  0  0  5  0  0  0  0  0  0
   30.9423   -9.6065    8.0096 O   0  0  0  0  0  0  0  0  0  0  0  0
   32.8080   -8.0864    6.9438 O   0  0  0  0  0  0  0  0  0  0  0  0
   32.9850  -10.8230    7.0212 O   0  0  0  0  0  0  0  0  0  0  0  0
   34.8741   -9.3507    9.2433 P   0  0  1  0  0  5  0  0  0  0  0  0
   35.2869   -7.9976    8.6790 O   0  0  0  0  0  0  0  0  0  0  0  0
   35.5189   -9.4477   10.8031 O   0  0  0  0  0  0  0  0  0  0  0  0
   33.1915   -9.4075    9.3762 O   0  0  0  0  0  0  0  0  0  0  0  0
   35.4646  -10.6011    8.2551 O   0  0  0  0  0  0  0  0  0  0  0  0
   36.0425  -10.0674    7.0832 C   0  0  0  0  0  0  0  0  0  0  0  0
   37.4150  -10.6294    7.0061 C   0  0  1  0  0  0  0  0  0  0  0  0
   37.8410  -11.1686    8.2189 O   0  0  0  0  0  0  0  0  0  0  0  0
   37.5481  -11.8279    6.1030 C   0  0  1  0  0  0  0  0  0  0  0  0
   37.5849  -11.4293    4.7511 O   0  0  0  0  0  0  0  0  0  0  0  0
   38.9378  -12.3082    6.5138 C   0  0  0  0  0  0  0  0  0  0  0  0
   39.0147  -11.8481    7.9339 C   0  0  2  0  0  0  0  0  0  0  0  0
   39.2975  -12.9010    8.8860 N   0  0  0  0  0  0  0  0  0  0  0  0
   38.5153  -13.3170    9.9202 C   0  0  0  0  0  0  0  0  0  0  0  0
   39.1206  -14.3198   10.5796 N   0  0  0  0  0  0  0  0  0  0  0  0
   40.3009  -14.5669    9.9830 C   0  0  0  0  0  0  0  0  0  0  0  0
   41.2870  -15.4844   10.2680 C   0  0  0  0  0  0  0  0  0  0  0  0
   41.1826  -16.4061   11.3606 N   0  0  0  0  0  0  0  0  0  0  0  0
   42.3762  -15.4892    9.4715 N   0  0  0  0  0  0  0  0  0  0  0  0
   42.4754  -14.6203    8.4410 C   0  0  0  0  0  0  0  0  0  0  0  0
   41.5096  -13.7188    8.1586 N   0  0  0  0  0  0  0  0  0  0  0  0
   40.3972  -13.6702    8.9240 C   0  0  0  0  0  0  0  0  0  0  0  0
  1  2  2  0
  1  3  1  6
  1  4  1  0
  5  6  2  0
  5  7  1  1
  1  8  1  0
  5  8  1  0
  5  9  1  0
 10  9  1  6
 11 10  1  0
 11 12  1  1
 11 13  1  0
 13 14  1  6
 13 15  1  0
 12 16  1  0
 15 16  1  6
 16 17  1  1
 17 18  1  0
 18 19  2  0
 19 20  1  0
 20 21  2  0
 21 22  1  0
 21 23  1  0
 23 24  2  0
 24 25  1  0
 17 26  1  0
 20 26  1  0
 25 26  2  0
M  END
$$$$
