7MYU_ZR7_A_401
     RDKit          3D

 35 39  0  0  0  0  0  0  0  0999 V2000
    9.3417   55.2019   91.3184 O   0  0  0  0  0  0  0  0  0  0  0  0
   16.7473   59.5835   92.3139 C   0  0  0  0  0  0  0  0  0  0  0  0
   18.5768   59.2060   90.8724 C   0  0  0  0  0  0  0  0  0  0  0  0
   22.0494   54.6200   90.2311 C   0  0  0  0  0  0  0  0  0  0  0  0
   19.6046   58.3346   90.4156 N   0  0  0  0  0  0  0  0  0  0  0  0
   19.9506   57.0558   91.0361 C   0  0  0  0  0  0  0  0  0  0  0  0
   20.4775   58.5692   89.2622 C   0  0  0  0  0  0  0  0  0  0  0  0
   21.1388   57.2037   89.0908 C   0  0  2  0  0  0  0  0  0  0  0  0
   20.2718   56.2353   89.8026 C   0  0  2  0  0  0  0  0  0  0  0  0
   15.2804   57.1911   90.6583 O   0  0  0  0  0  0  0  0  0  0  0  0
   14.7244   56.2460   90.0740 C   0  0  0  0  0  0  0  0  0  0  0  0
   13.3101   55.9999   90.4312 C   0  0  0  0  0  0  0  0  0  0  0  0
   12.5882   55.0651   89.7464 N   0  0  0  0  0  0  0  0  0  0  0  0
   11.3060   54.7970   90.0221 C   0  0  0  0  0  0  0  0  0  0  0  0
   10.6713   55.4766   91.0290 C   0  0  0  0  0  0  0  0  0  0  0  0
    8.5798   55.8681   92.2933 C   0  0  0  0  0  0  0  0  0  0  0  0
   11.3714   56.4041   91.7156 N   0  0  0  0  0  0  0  0  0  0  0  0
   12.6669   56.6638   91.4251 C   0  0  0  0  0  0  0  0  0  0  0  0
   15.3596   55.4218   89.1149 N   0  0  0  0  0  0  0  0  0  0  0  0
   16.6982   55.5307   88.6881 C   0  0  0  0  0  0  0  0  0  0  0  0
   16.9514   55.3196   87.3455 C   0  0  0  0  0  0  0  0  0  0  0  0
   18.2190   55.4008   86.8211 C   0  0  0  0  0  0  0  0  0  0  0  0
   19.2769   55.7003   87.6462 C   0  0  0  0  0  0  0  0  0  0  0  0
   20.5113   55.7732   87.0940 F   0  0  0  0  0  0  0  0  0  0  0  0
   17.7814   55.8275   89.4787 C   0  0  0  0  0  0  0  0  0  0  0  0
   19.0668   55.9223   89.0157 C   0  0  0  0  0  0  0  0  0  0  0  0
   20.8326   54.9589   90.1163 N   0  0  0  0  0  0  0  0  0  0  0  0
   22.3255   53.2523   90.5576 N   0  0  0  0  0  0  0  0  0  0  0  0
   23.3693   55.8067   89.9939 S   0  0  0  0  0  0  0  0  0  0  0  0
   22.5181   57.3616   89.6880 C   0  0  0  0  0  0  0  0  0  0  0  0
   18.4661   60.4237   90.3194 N   0  0  0  0  0  0  0  0  0  0  0  0
   17.4816   61.2624   90.7547 C   0  0  0  0  0  0  0  0  0  0  0  0
   16.6027   60.8543   91.7632 C   0  0  0  0  0  0  0  0  0  0  0  0
   15.6152   61.6643   92.2165 F   0  0  0  0  0  0  0  0  0  0  0  0
   17.7379   58.8079   91.8394 N   0  0  0  0  0  0  0  0  0  0  0  0
  3  5  1  0
  5  6  1  0
  5  7  1  0
  8  7  1  1
  6  9  1  0
  8  9  1  0
 10 11  2  0
 11 12  1  0
 12 13  2  0
 13 14  1  0
 14 15  2  0
  1 15  1  0
  1 16  1  0
 15 17  1  0
 12 18  1  0
 17 18  2  0
 11 19  1  0
 19 20  1  0
 20 21  2  0
 21 22  1  0
 22 23  2  0
 23 24  1  0
 20 25  1  0
 23 26  1  0
 25 26  2  0
  9 26  1  6
  9 27  1  0
  4 27  2  0
  4 28  1  0
  4 29  1  0
  8 30  1  0
 29 30  1  0
  3 31  1  0
 31 32  2  0
 32 33  1  0
  2 33  2  0
 33 34  1  0
  3 35  2  0
  2 35  1  0
M  END
$$$$
