8H0M_2EH_A_405
     RDKit          3D

 27 26  0  0  0  0  0  0  0  0999 V2000
   28.5376   19.8483   19.6476 C   0  0  2  0  0  0  0  0  0  0  0  0
   28.3241   17.3573   20.2115 C   0  0  1  0  0  0  0  0  0  0  0  0
   27.4949   16.3766   19.3808 C   0  0  1  0  0  0  0  0  0  0  0  0
   27.7835   17.1022   17.5333 C   0  0  1  0  0  0  0  0  0  0  0  0
   29.0643   18.4239   19.3607 C   0  0  1  0  0  0  0  0  0  0  0  0
   27.1977   19.8067   20.0533 O   0  0  0  0  0  0  0  0  0  0  0  0
   28.9255   18.0903   17.8431 C   0  0  1  0  0  0  0  0  0  0  0  0
   28.0712   16.1355   16.3722 C   0  0  2  0  0  0  0  0  0  0  0  0
   28.6948   14.8200   16.8384 C   0  0  2  0  0  0  0  0  0  0  0  0
   28.6448   20.4847   18.7401 H   0  0  0  0  0  0  0  0  0  0  0  0
   29.1325   20.3073   20.4693 H   0  0  0  0  0  0  0  0  0  0  0  0
   27.6248   17.8611   20.9105 H   0  0  0  0  0  0  0  0  0  0  0  0
   29.0504   16.7895   20.8332 H   0  0  0  0  0  0  0  0  0  0  0  0
   27.2557   15.4840   19.9967 H   0  0  0  0  0  0  0  0  0  0  0  0
   26.5410   16.8441   19.0569 H   0  0  0  0  0  0  0  0  0  0  0  0
   28.0638   16.0287   18.4950 H   0  0  0  0  0  0  0  0  0  0  0  0
   27.5611   16.5115   18.4490 H   0  0  0  0  0  0  0  0  0  0  0  0
   26.8633   17.6803   17.2976 H   0  0  0  0  0  0  0  0  0  0  0  0
   30.1431   18.4134   19.6354 H   0  0  0  0  0  0  0  0  0  0  0  0
   27.0039   18.8583   20.2720 H   0  0  0  0  0  0  0  0  0  0  0  0
   29.8573   17.6188   17.4609 H   0  0  0  0  0  0  0  0  0  0  0  0
   28.8098   19.0121   17.2337 H   0  0  0  0  0  0  0  0  0  0  0  0
   28.7207   16.6146   15.6105 H   0  0  0  0  0  0  0  0  0  0  0  0
   27.1068   15.8989   15.8728 H   0  0  0  0  0  0  0  0  0  0  0  0
   29.4437   15.0283   17.6313 H   0  0  0  0  0  0  0  0  0  0  0  0
   29.2080   14.3135   15.9935 H   0  0  0  0  0  0  0  0  0  0  0  0
   27.9258   14.1417   17.2603 H   0  0  0  0  0  0  0  0  0  0  0  0
  2  3  1  0
  5  1  1  0
  2  5  1  0
  1  6  1  0
  4  7  1  0
  5  7  1  0
  4  8  1  0
  8  9  1  0
  1 10  1  6
  1 11  1  0
  2 12  1  1
  2 13  1  0
  3 14  1  1
  3 15  1  0
  3 16  1  0
  4 17  1  1
  4 18  1  0
  5 19  1  1
  6 20  1  0
  7 21  1  6
  7 22  1  0
  8 23  1  6
  8 24  1  0
  9 25  1  1
  9 26  1  0
  9 27  1  0
M  END
