7WJB_BGC_A_802
     RDKit          3D

 24 24  0  0  0  0  0  0  0  0999 V2000
   55.4792   22.7347   13.9179 C   0  0  2  0  0  0  0  0  0  0  0  0
   54.3307   22.5271   14.8945 C   0  0  2  0  0  0  0  0  0  0  0  0
   53.7080   21.1591   14.6028 C   0  0  1  0  0  0  0  0  0  0  0  0
   54.7654   20.0764   14.8182 C   0  0  1  0  0  0  0  0  0  0  0  0
   54.2668   18.6708   14.4726 C   0  0  0  0  0  0  0  0  0  0  0  0
   56.4968   21.6238   14.1489 C   0  0  2  0  0  0  0  0  0  0  0  0
   57.6084   21.8163   13.2635 O   0  0  0  0  0  0  0  0  0  0  0  0
   56.1206   24.0034   14.0328 O   0  0  0  0  0  0  0  0  0  0  0  0
   53.3638   23.5485   14.7605 O   0  0  0  0  0  0  0  0  0  0  0  0
   52.5496   20.9496   15.4007 O   0  0  0  0  0  0  0  0  0  0  0  0
   55.8580   20.3387   13.9272 O   0  0  0  0  0  0  0  0  0  0  0  0
   55.3978   17.8346   14.2227 O   0  0  0  0  0  0  0  0  0  0  0  0
   55.0691   22.7073   12.9299 H   0  0  0  0  0  0  0  0  0  0  0  0
   54.6953   22.5640   15.8997 H   0  0  0  0  0  0  0  0  0  0  0  0
   53.3840   21.1158   13.5840 H   0  0  0  0  0  0  0  0  0  0  0  0
   55.0331   20.1046   15.8538 H   0  0  0  0  0  0  0  0  0  0  0  0
   53.6491   18.7120   13.5999 H   0  0  0  0  0  0  0  0  0  0  0  0
   53.6931   18.2763   15.2851 H   0  0  0  0  0  0  0  0  0  0  0  0
   56.8597   21.6477   15.1552 H   0  0  0  0  0  0  0  0  0  0  0  0
   57.2972   21.7975   12.3450 H   0  0  0  0  0  0  0  0  0  0  0  0
   56.5148   24.0876   14.9151 H   0  0  0  0  0  0  0  0  0  0  0  0
   53.0110   23.5432   13.8569 H   0  0  0  0  0  0  0  0  0  0  0  0
   52.7935   20.9801   16.3391 H   0  0  0  0  0  0  0  0  0  0  0  0
   55.9124   18.1986   13.4854 H   0  0  0  0  0  0  0  0  0  0  0  0
  1  2  1  0
  2  3  1  0
  3  4  1  0
  4  5  1  0
  1  6  1  0
  6  7  1  0
  1  8  1  0
  2  9  1  0
  3 10  1  0
  4 11  1  0
  6 11  1  0
  5 12  1  0
  1 13  1  6
  2 14  1  1
  3 15  1  6
  4 16  1  1
  5 17  1  0
  5 18  1  0
  6 19  1  1
  7 20  1  0
  8 21  1  0
  9 22  1  0
 10 23  1  0
 12 24  1  0
M  END
