7M6K_YRJ_B_701
     RDKit          3D

 33 35  0  0  0  0  0  0  0  0999 V2000
   15.3735   -4.8991  -23.9877 C   0  0  0  0  0  0  0  0  0  0  0  0
   14.1905   -5.0663  -21.9585 C   0  0  0  0  0  0  0  0  0  0  0  0
   12.1711   -3.6620  -21.5375 C   0  0  0  0  0  0  0  0  0  0  0  0
   10.8553   -1.6047  -21.3224 C   0  0  0  0  0  0  0  0  0  0  0  0
   10.3082    1.0189  -20.1725 C   0  0  0  0  0  0  0  0  0  0  0  0
   10.7482    3.3467  -20.0875 C   0  0  0  0  0  0  0  0  0  0  0  0
   14.5132   -3.9319  -28.0383 C   0  0  1  0  0  0  0  0  0  0  0  0
   15.0444   -4.4381  -26.7105 C   0  0  2  0  0  0  0  0  0  0  0  0
   14.7400   -3.4603  -25.7922 C   0  0  2  0  0  0  0  0  0  0  0  0
   13.1828   -3.2335  -27.5327 C   0  0  1  0  0  0  0  0  0  0  0  0
   12.0785   -4.3184  -27.5956 C   0  0  0  0  0  0  0  0  0  0  0  0
   15.2156   -5.4417  -22.7471 C   0  0  0  0  0  0  0  0  0  0  0  0
   13.3271   -4.1198  -22.4804 C   0  0  0  0  0  0  0  0  0  0  0  0
   13.5211   -3.5936  -23.7333 C   0  0  0  0  0  0  0  0  0  0  0  0
   10.8694    0.9623  -21.4431 C   0  0  0  0  0  0  0  0  0  0  0  0
   10.2717    2.2145  -19.4904 C   0  0  0  0  0  0  0  0  0  0  0  0
   11.2693    3.3007  -21.3697 C   0  0  0  0  0  0  0  0  0  0  0  0
   11.3111    2.0947  -22.0625 C   0  0  0  0  0  0  0  0  0  0  0  0
   14.5222   -3.9812  -24.4403 N   0  0  0  0  0  0  0  0  0  0  0  0
   11.2492   -2.7496  -22.1256 N   0  0  0  0  0  0  0  0  0  0  0  0
   10.8284   -0.3291  -22.1035 N   0  0  0  0  0  0  0  0  0  0  0  0
   10.6918    4.5785  -19.3730 N   0  0  0  0  0  0  0  0  0  0  0  0
   15.3735   -2.9723  -28.6475 O   0  0  0  0  0  0  0  0  0  0  0  0
   16.3905   -4.6843  -26.7845 O   0  0  0  0  0  0  0  0  0  0  0  0
   13.3632   -2.8385  -26.2848 O   0  0  0  0  0  0  0  0  0  0  0  0
   11.4930   -4.2155  -28.8597 O   0  0  0  0  0  0  0  0  0  0  0  0
   13.2099   -5.7919  -29.9627 O   0  0  0  0  0  0  0  0  0  0  0  0
   11.1108   -5.2249  -31.1876 O   0  0  0  0  0  0  0  0  0  0  0  0
   10.9532   -6.6450  -29.1391 O   0  0  0  0  0  0  0  0  0  0  0  0
   10.6189   -1.7026  -20.1777 O   0  0  0  0  0  0  0  0  0  0  0  0
   10.9253    4.5916  -18.0122 O   0  0  0  0  0  0  0  0  0  0  0  0
   10.4832    5.5723  -19.9464 O   0  0  0  0  0  0  0  0  0  0  0  0
   11.7037   -5.5291  -29.8247 P   0  0  2  0  0  0  0  0  0  0  0  0
  7  8  1  0
  8  9  1  0
  7 10  1  0
 10 11  1  1
  1 12  2  0
  2 12  1  0
  3 13  1  0
  2 13  2  0
 13 14  1  0
  5 15  2  0
  6 16  2  0
  5 16  1  0
  6 17  1  0
 17 18  2  0
 15 18  1  0
  9 19  1  1
 14 19  2  0
  1 19  1  0
  4 20  1  0
  3 20  1  0
 15 21  1  0
  4 21  1  0
  6 22  1  0
  7 23  1  1
  8 24  1  6
 10 25  1  0
  9 25  1  0
 11 26  1  0
  4 30  2  0
 22 31  1  0
 22 32  2  0
 26 33  1  0
 28 33  2  0
 33 27  1  6
 29 33  1  0
M  CHG  3  19   1  22   1  31  -1
M  END
