1SQN_NDR_B_2001
     RDKit          3D

 22 25  0  0  0  0  0  0  0  0999 V2000
    4.8904   14.2097   15.3757 O   0  0  0  0  0  0  0  0  0  0  0  0
    5.6729   13.6095   16.0293 C   0  0  0  0  0  0  0  0  0  0  0  0
    6.0837   14.0548   17.4254 C   0  0  0  0  0  0  0  0  0  0  0  0
    6.1733   12.3357   15.4477 C   0  0  0  0  0  0  0  0  0  0  0  0
    7.1799   11.6692   16.2255 C   0  0  0  0  0  0  0  0  0  0  0  0
    7.6118   10.2976   15.6529 C   0  0  0  0  0  0  0  0  0  0  0  0
    7.8461   12.1185   17.3824 C   0  0  2  0  0  0  0  0  0  0  0  0
    7.5587   13.6149   17.7135 C   0  0  0  0  0  0  0  0  0  0  0  0
    9.2151   11.7041   17.5677 C   0  0  2  0  0  0  0  0  0  0  0  0
    9.7038   10.4334   17.1632 C   0  0  1  0  0  0  0  0  0  0  0  0
    9.1213    9.9573   15.7998 C   0  0  0  0  0  0  0  0  0  0  0  0
    9.9457   12.3316   18.7849 C   0  0  0  0  0  0  0  0  0  0  0  0
   11.4516   11.9631   18.8636 C   0  0  0  0  0  0  0  0  0  0  0  0
   11.7801   10.4697   18.6729 C   0  0  2  0  0  0  0  0  0  0  0  0
   11.0632   10.0472   17.3991 C   0  0  1  0  0  0  0  0  0  0  0  0
   11.1924    9.6510   19.8809 C   0  0  0  0  0  0  0  0  0  0  0  0
   13.2153   10.0152   18.4299 C   0  0  1  0  0  0  0  0  0  0  0  0
   14.0502    9.8623   19.5823 O   0  0  0  0  0  0  0  0  0  0  0  0
   13.0695    8.6895   17.6646 C   0  0  0  0  0  0  0  0  0  0  0  0
   11.7003    8.7440   16.9504 C   0  0  0  0  0  0  0  0  0  0  0  0
   13.9028   10.9626   17.5035 C   0  0  0  0  0  0  0  0  0  0  0  0
   14.5279   11.6564   16.6333 C   0  0  0  0  0  0  0  0  0  0  0  0
  1  2  2  0
  2  3  1  0
  2  4  1  0
  4  5  2  0
  5  6  1  0
  5  7  1  0
  3  8  1  0
  7  8  1  6
  7  9  1  0
  9 10  1  0
  6 11  1  0
 10 11  1  6
  9 12  1  1
 12 13  1  0
 13 14  1  0
 10 15  1  0
 14 15  1  0
 14 16  1  1
 14 17  1  0
 17 18  1  1
 17 19  1  0
 15 20  1  1
 19 20  1  0
 17 21  1  0
 21 22  3  0
M  END
