7SFO_98L_A_601
     RDKit          3D

 39 42  0  0  0  0  0  0  0  0999 V2000
    0.8269   -0.5747   12.1057 N   0  0  0  0  0  0  0  0  0  0  0  0
   -1.4629   -2.8546    9.4146 N   0  0  0  0  0  0  0  0  0  0  0  0
   -2.7834   -4.2747   10.6950 C   0  0  0  0  0  0  0  0  0  0  0  0
   -2.0988   -4.5568   11.8894 C   0  0  0  0  0  0  0  0  0  0  0  0
   -2.4623   -5.6852   12.6420 C   0  0  0  0  0  0  0  0  0  0  0  0
   -1.0466   -3.6458   12.3805 C   0  0  0  0  0  0  0  0  0  0  0  0
    0.2823   -1.7446   12.5122 C   0  0  0  0  0  0  0  0  0  0  0  0
    0.5596   -0.1282   10.8495 C   0  0  0  0  0  0  0  0  0  0  0  0
   -1.7566   -2.3616    8.0715 C   0  0  2  0  0  0  0  0  0  0  0  0
   -2.7801   -0.2261    7.2118 C   0  0  0  0  0  0  0  0  0  0  0  0
   -2.0901    1.9357    8.0616 C   0  0  0  0  0  0  0  0  0  0  0  0
   -3.4730   -6.5381   12.1874 C   0  0  0  0  0  0  0  0  0  0  0  0
   -0.7700   -2.0575   10.3873 C   0  0  0  0  0  0  0  0  0  0  0  0
   -0.5318   -3.7697   13.6755 C   0  0  0  0  0  0  0  0  0  0  0  0
   -1.8838   -0.8629    8.0858 C   0  0  0  0  0  0  0  0  0  0  0  0
   -2.8859    1.1692    7.1993 C   0  0  0  0  0  0  0  0  0  0  0  0
   -1.1927    1.3082    8.9297 C   0  0  0  0  0  0  0  0  0  0  0  0
   -1.0871   -0.0855    8.9425 C   0  0  0  0  0  0  0  0  0  0  0  0
   -4.1350   -6.2630   10.9875 C   0  0  0  0  0  0  0  0  0  0  0  0
   -3.7922   -5.1309   10.2433 C   0  0  0  0  0  0  0  0  0  0  0  0
   -0.5500   -2.5036   11.7068 C   0  0  0  0  0  0  0  0  0  0  0  0
   -0.2161   -0.8685   10.0075 N   0  0  0  0  0  0  0  0  0  0  0  0
   -3.7819    1.7830    6.3269 O   0  0  0  0  0  0  0  0  0  0  0  0
    0.4775   -2.4591   14.0126 S   0  0  0  0  0  0  0  0  0  0  0  0
    1.2440    1.3841   10.2966 Cl  0  0  0  0  0  0  0  0  0  0  0  0
   -1.5868   -3.8766    9.5849 H   0  0  0  0  0  0  0  0  0  0  0  0
   -2.5340   -3.3948   10.1146 H   0  0  0  0  0  0  0  0  0  0  0  0
   -1.9564   -5.9095   13.5731 H   0  0  0  0  0  0  0  0  0  0  0  0
   -2.6808   -2.8430    7.6830 H   0  0  0  0  0  0  0  0  0  0  0  0
   -0.9300   -2.6534    7.3882 H   0  0  0  0  0  0  0  0  0  0  0  0
   -3.3937   -0.8135    6.5392 H   0  0  0  0  0  0  0  0  0  0  0  0
   -2.1649    3.0157    8.0580 H   0  0  0  0  0  0  0  0  0  0  0  0
   -3.7436   -7.4119   12.7659 H   0  0  0  0  0  0  0  0  0  0  0  0
   -0.7878   -4.5506   14.3796 H   0  0  0  0  0  0  0  0  0  0  0  0
   -0.5768    1.9026    9.5922 H   0  0  0  0  0  0  0  0  0  0  0  0
   -0.3835   -0.5562    9.6178 H   0  0  0  0  0  0  0  0  0  0  0  0
   -4.9169   -6.9244   10.6371 H   0  0  0  0  0  0  0  0  0  0  0  0
   -4.3106   -4.9145    9.3181 H   0  0  0  0  0  0  0  0  0  0  0  0
   -3.4919    2.1070    5.4116 H   0  0  0  0  0  0  0  0  0  0  0  0
  3  4  2  0
  4  5  1  0
  4  6  1  0
  1  7  2  0
  1  8  1  0
  2  9  1  0
  5 12  2  0
  2 13  1  0
  6 14  2  0
 10 15  2  0
  9 15  1  0
 11 16  2  0
 10 16  1  0
 11 17  1  0
 17 18  2  0
 15 18  1  0
 12 19  1  0
 19 20  2  0
  3 20  1  0
  6 21  1  0
 13 21  2  0
  7 21  1  0
 13 22  1  0
  8 22  2  0
 16 23  1  0
 14 24  1  0
  7 24  1  0
  8 25  1  0
  2 26  1  0
  3 27  1  0
  5 28  1  0
  9 29  1  6
  9 30  1  0
 10 31  1  0
 11 32  1  0
 12 33  1  0
 14 34  1  0
 17 35  1  0
 18 36  1  0
 19 37  1  0
 20 38  1  0
 23 39  1  0
M  END
