7D0P_1VU_A_701
     RDKit          3D

 52 54  0  0  0  0  0  0  0  0999 V2000
  189.9814    6.9602   89.3088 O   0  0  0  0  0  0  0  0  0  0  0  0
  190.4407    5.9927   90.3808 P   0  0  1  0  0  5  0  0  0  0  0  0
  190.4588    6.8024   91.8540 O   0  0  0  0  0  0  0  0  0  0  0  0
  189.2171    4.8088   90.4837 O   0  0  0  0  0  0  0  0  0  0  0  0
  191.9376    5.3099   89.9906 O   0  0  0  0  0  0  0  0  0  0  0  0
  192.5187    4.8558   91.1456 C   0  0  1  0  0  0  0  0  0  0  0  0
  192.3065    5.8297   92.3116 C   0  0  1  0  0  0  0  0  0  0  0  0
  191.0393    6.3969   92.1949 O   0  0  0  0  0  0  0  0  0  0  0  0
  192.2667    4.8802   93.4804 C   0  0  2  0  0  0  0  0  0  0  0  0
  193.2163    5.3258   94.4609 N   0  0  0  0  0  0  0  0  0  0  0  0
  193.0231    6.2119   95.4459 C   0  0  0  0  0  0  0  0  0  0  0  0
  191.9687    6.9528   95.8559 N   0  0  0  0  0  0  0  0  0  0  0  0
  192.0949    7.7764   96.9131 C   0  0  0  0  0  0  0  0  0  0  0  0
  193.2491    7.8828   97.5775 N   0  0  0  0  0  0  0  0  0  0  0  0
  194.3296    7.1796   97.2253 C   0  0  0  0  0  0  0  0  0  0  0  0
  195.5759    7.2683   97.9108 N   0  0  0  0  0  0  0  0  0  0  0  0
  194.2120    6.3289   96.1389 C   0  0  0  0  0  0  0  0  0  0  0  0
  195.0821    5.4996   95.5359 N   0  0  0  0  0  0  0  0  0  0  0  0
  194.4985    4.8649   94.4958 C   0  0  0  0  0  0  0  0  0  0  0  0
  192.5575    3.6120   92.9856 O   0  0  0  0  0  0  0  0  0  0  0  0
  191.9074    3.6229   91.7357 C   0  0  2  0  0  0  0  0  0  0  0  0
  192.1800    2.3656   90.9452 C   0  0  0  0  0  0  0  0  0  0  0  0
  193.5037    2.2325   90.6156 O   0  0  0  0  0  0  0  0  0  0  0  0
  193.8705    0.7672   89.8655 P   0  0  1  0  0  5  0  0  0  0  0  0
  192.5241    0.0177   89.2242 O   0  0  0  0  0  0  0  0  0  0  0  0
  194.7763    1.1181   88.6895 O   0  0  0  0  0  0  0  0  0  0  0  0
  194.7864   -0.2562   90.8452 O   0  0  0  0  0  0  0  0  0  0  0  0
  196.4152   -0.1920   90.5030 P   0  0  1  0  0  5  0  0  0  0  0  0
  196.6476   -1.2228   89.3934 O   0  0  0  0  0  0  0  0  0  0  0  0
  196.7608    1.3064   89.8019 O   0  0  0  0  0  0  0  0  0  0  0  0
  197.4379   -0.5820   91.7510 O   0  0  0  0  0  0  0  0  0  0  0  0
  196.8459   -1.0496   92.8999 C   0  0  0  0  0  0  0  0  0  0  0  0
  197.8214   -1.2539   94.0299 C   0  0  2  0  0  0  0  0  0  0  0  0
  199.1226   -0.5725   93.6328 C   0  0  0  0  0  0  0  0  0  0  0  0
  198.1470   -2.7161   94.2377 C   0  0  0  0  0  0  0  0  0  0  0  0
  197.4133   -0.6794   95.3364 C   0  0  1  0  0  0  0  0  0  0  0  0
  196.0445   -0.5261   95.5136 O   0  0  0  0  0  0  0  0  0  0  0  0
  197.9125   -1.4385   96.5143 C   0  0  0  0  0  0  0  0  0  0  0  0
  197.1207   -2.0345   97.3165 O   0  0  0  0  0  0  0  0  0  0  0  0
  199.2980   -1.5516   96.8255 N   0  0  0  0  0  0  0  0  0  0  0  0
  199.8182   -2.0810   98.0468 C   0  0  0  0  0  0  0  0  0  0  0  0
  199.8107   -3.5620   98.1818 C   0  0  0  0  0  0  0  0  0  0  0  0
  200.4139   -4.0955   99.4031 C   0  0  0  0  0  0  0  0  0  0  0  0
  201.0368   -3.4265  100.2611 O   0  0  0  0  0  0  0  0  0  0  0  0
  200.2831   -5.5058   99.6412 N   0  0  0  0  0  0  0  0  0  0  0  0
  198.9902   -6.1124   99.8852 C   0  0  0  0  0  0  0  0  0  0  0  0
  198.7260   -6.1357  101.3801 C   0  0  0  0  0  0  0  0  0  0  0  0
  199.9783   -7.0003  102.3187 S   0  0  0  0  0  0  0  0  0  0  0  0
  200.6327   -8.4275  101.5176 C   0  0  0  0  0  0  0  0  0  0  0  0
  200.0727   -8.8375  100.5098 O   0  0  0  0  0  0  0  0  0  0  0  0
  201.8247   -9.1912  101.9684 C   0  0  0  0  0  0  0  0  0  0  0  0
  202.4957   -8.4600  103.1004 C   0  0  0  0  0  0  0  0  0  0  0  0
  1  2  2  0
  2  3  1  1
  2  4  1  0
  2  5  1  0
  6  5  1  6
  6  7  1  0
  7  8  1  6
  7  9  1  0
  9 10  1  1
 10 11  1  0
 11 12  2  0
 12 13  1  0
 13 14  2  0
 14 15  1  0
 15 16  1  0
 11 17  1  0
 15 17  2  0
 17 18  1  0
 18 19  2  0
 10 19  1  0
  9 20  1  0
  6 21  1  0
 21 20  1  1
 21 22  1  0
 22 23  1  1
 24 23  1  0
 24 25  1  6
 24 26  2  0
 24 27  1  0
 28 27  1  0
 28 29  2  0
 28 30  1  6
 28 31  1  0
 32 31  1  1
 32 33  1  0
 33 34  1  6
 35 33  1  1
 33 36  1  0
 36 37  1  6
 36 38  1  0
 38 39  2  0
 38 40  1  0
 41 40  1  1
 41 42  1  0
 42 43  1  1
 43 44  2  0
 43 45  1  0
 46 45  1  6
 46 47  1  0
 47 48  1  6
 48 49  1  0
 49 50  2  0
 51 49  1  1
 52 51  1  1
M  END
$$$$
