1VCJ_IBA_A_1
     RDKit          3D

 25 26  0  0  0  0  0  0  0  0999 V2000
   21.2533    4.4310   49.2432 C   0  0  0  0  0  0  0  0  0  0  0  0
   20.9762    3.1236   48.9178 C   0  0  0  0  0  0  0  0  0  0  0  0
   21.9167    2.2850   48.3049 C   0  0  0  0  0  0  0  0  0  0  0  0
   23.1406    2.8736   48.0559 C   0  0  0  0  0  0  0  0  0  0  0  0
   23.4239    4.1943   48.3843 C   0  0  0  0  0  0  0  0  0  0  0  0
   22.4684    4.9806   48.9844 C   0  0  0  0  0  0  0  0  0  0  0  0
   24.7499    4.7453   48.0867 C   0  0  0  0  0  0  0  0  0  0  0  0
   25.6717    3.9735   47.4009 O   0  0  0  0  0  0  0  0  0  0  0  0
   25.0339    5.9127   48.4582 O   0  0  0  0  0  0  0  0  0  0  0  0
   21.5564    0.9840   47.9677 N   0  0  0  0  0  0  0  0  0  0  0  0
   22.3555   -0.0353   47.3414 C   0  0  2  0  0  0  0  0  0  0  0  0
   22.2025   -0.1377   45.8515 C   0  0  0  0  0  0  0  0  0  0  0  0
   22.3309   -1.3675   48.0508 C   0  0  0  0  0  0  0  0  0  0  0  0
   22.6716    1.1511   45.1616 C   0  0  0  0  0  0  0  0  0  0  0  0
   22.7413   -1.1220   49.5093 C   0  0  0  0  0  0  0  0  0  0  0  0
   19.6538    2.6643   49.2417 N   0  0  0  0  0  0  0  0  0  0  0  0
   18.6123    3.4078   49.9039 C   0  0  1  0  0  0  0  0  0  0  0  0
   17.4830    2.4151   50.0005 C   0  0  0  0  0  0  0  0  0  0  0  0
   18.1255    1.0593   49.8791 C   0  0  0  0  0  0  0  0  0  0  0  0
   19.2171    1.3582   48.8790 C   0  0  0  0  0  0  0  0  0  0  0  0
   19.6207    0.6084   47.9562 O   0  0  0  0  0  0  0  0  0  0  0  0
   18.9895    3.7823   51.3160 C   0  0  0  0  0  0  0  0  0  0  0  0
   17.8995    4.2605   52.0419 O   0  0  0  0  0  0  0  0  0  0  0  0
   18.2077    4.6338   49.1032 C   0  0  0  0  0  0  0  0  0  0  0  0
   16.9344    5.1671   49.5097 N   0  0  0  0  0  0  0  0  0  0  0  0
  1  2  2  0
  2  3  1  0
  3  4  2  0
  4  5  1  0
  1  6  1  0
  5  6  2  0
  5  7  1  0
  7  8  1  0
  7  9  2  0
  3 10  1  0
 10 11  1  0
 11 12  1  6
 11 13  1  0
 12 14  1  0
 13 15  1  0
  2 16  1  0
 16 17  1  0
 17 18  1  0
 18 19  1  0
 16 20  1  0
 19 20  1  0
 20 21  2  0
 17 22  1  1
 22 23  1  0
 17 24  1  0
 24 25  1  0
M  END
$$$$
