1VCJ_IBA_A_1
     RDKit          3D

 25 26  0  0  0  0  0  0  0  0999 V2000
   45.5468   10.4942   56.7882 C   0  0  0  0  0  0  0  0  0  0  0  0
   45.8767    9.1633   56.6791 C   0  0  0  0  0  0  0  0  0  0  0  0
   46.9856    8.7205   55.9457 C   0  0  0  0  0  0  0  0  0  0  0  0
   47.7192    9.7239   55.3445 C   0  0  0  0  0  0  0  0  0  0  0  0
   47.3887   11.0697   55.4535 C   0  0  0  0  0  0  0  0  0  0  0  0
   46.2897   11.4576   56.1837 C   0  0  0  0  0  0  0  0  0  0  0  0
   48.2202   12.0753   54.7843 C   0  0  0  0  0  0  0  0  0  0  0  0
   47.9765   13.4197   55.0056 O   0  0  0  0  0  0  0  0  0  0  0  0
   49.1451   11.7043   54.0171 O   0  0  0  0  0  0  0  0  0  0  0  0
   47.2389    7.3560   55.8451 N   0  0  0  0  0  0  0  0  0  0  0  0
   47.7887    6.6243   54.7352 C   0  0  2  0  0  0  0  0  0  0  0  0
   46.8028    6.2575   53.6641 C   0  0  0  0  0  0  0  0  0  0  0  0
   48.7096    5.4954   55.1302 C   0  0  0  0  0  0  0  0  0  0  0  0
   47.1625    6.9317   52.3326 C   0  0  0  0  0  0  0  0  0  0  0  0
   49.9228    6.1147   55.8375 C   0  0  0  0  0  0  0  0  0  0  0  0
   45.0091    8.2448   57.3632 N   0  0  0  0  0  0  0  0  0  0  0  0
   43.5693    8.2123   57.3209 C   0  0  1  0  0  0  0  0  0  0  0  0
   43.2190    7.0767   58.2471 C   0  0  0  0  0  0  0  0  0  0  0  0
   44.4175    6.8998   59.1405 C   0  0  0  0  0  0  0  0  0  0  0  0
   45.5346    7.1935   58.1674 C   0  0  0  0  0  0  0  0  0  0  0  0
   46.6526    6.6250   58.1085 O   0  0  0  0  0  0  0  0  0  0  0  0
   42.9540    9.4603   57.9044 C   0  0  0  0  0  0  0  0  0  0  0  0
   41.5617    9.4419   57.8347 O   0  0  0  0  0  0  0  0  0  0  0  0
   43.0588    7.9587   55.9127 C   0  0  0  0  0  0  0  0  0  0  0  0
   43.8848    7.0352   55.1807 N   0  0  0  0  0  0  0  0  0  0  0  0
  1  2  2  0
  2  3  1  0
  3  4  2  0
  4  5  1  0
  1  6  1  0
  5  6  2  0
  5  7  1  0
  7  8  1  0
  7  9  2  0
  3 10  1  0
 10 11  1  0
 11 12  1  1
 11 13  1  0
 12 14  1  0
 13 15  1  0
  2 16  1  0
 16 17  1  0
 17 18  1  0
 18 19  1  0
 16 20  1  0
 19 20  1  0
 20 21  2  0
 17 22  1  1
 22 23  1  0
 17 24  1  0
 24 25  1  0
M  END
$$$$
