1VCJ_IBA_A_1
     RDKit          3D

 25 26  0  0  0  0  0  0  0  0999 V2000
   44.0224    7.2547   54.0567 C   0  0  0  0  0  0  0  0  0  0  0  0
   45.0586    7.0344   54.9341 C   0  0  0  0  0  0  0  0  0  0  0  0
   44.8834    7.0476   56.3243 C   0  0  0  0  0  0  0  0  0  0  0  0
   43.5911    7.2972   56.7417 C   0  0  0  0  0  0  0  0  0  0  0  0
   42.5418    7.5194   55.8575 C   0  0  0  0  0  0  0  0  0  0  0  0
   42.7616    7.4979   54.5000 C   0  0  0  0  0  0  0  0  0  0  0  0
   41.1967    7.7774   56.3814 C   0  0  0  0  0  0  0  0  0  0  0  0
   40.1420    7.9467   55.5013 O   0  0  0  0  0  0  0  0  0  0  0  0
   41.0172    7.8418   57.6245 O   0  0  0  0  0  0  0  0  0  0  0  0
   45.9834    6.8555   57.1544 N   0  0  0  0  0  0  0  0  0  0  0  0
   46.2876    7.4982   58.4051 C   0  0  2  0  0  0  0  0  0  0  0  0
   47.2486    8.6478   58.3124 C   0  0  0  0  0  0  0  0  0  0  0  0
   46.5827    6.5452   59.5378 C   0  0  0  0  0  0  0  0  0  0  0  0
   46.5001    9.9876   58.2757 C   0  0  0  0  0  0  0  0  0  0  0  0
   45.3026    5.7446   59.8136 C   0  0  0  0  0  0  0  0  0  0  0  0
   46.3433    6.7916   54.3379 N   0  0  0  0  0  0  0  0  0  0  0  0
   46.9273    7.4840   53.2175 C   0  0  1  0  0  0  0  0  0  0  0  0
   48.2471    6.7833   53.0244 C   0  0  0  0  0  0  0  0  0  0  0  0
   48.0891    5.4369   53.6787 C   0  0  0  0  0  0  0  0  0  0  0  0
   47.2246    5.8032   54.8617 C   0  0  0  0  0  0  0  0  0  0  0  0
   47.2932    5.3282   56.0220 O   0  0  0  0  0  0  0  0  0  0  0  0
   46.1350    7.2851   51.9490 C   0  0  0  0  0  0  0  0  0  0  0  0
   46.8383    7.7008   50.8193 O   0  0  0  0  0  0  0  0  0  0  0  0
   47.1206    8.9613   53.5147 C   0  0  0  0  0  0  0  0  0  0  0  0
   48.1032    9.5754   52.6612 N   0  0  0  0  0  0  0  0  0  0  0  0
  1  2  2  0
  2  3  1  0
  3  4  2  0
  4  5  1  0
  1  6  1  0
  5  6  2  0
  5  7  1  0
  7  8  1  0
  7  9  2  0
  3 10  1  0
 10 11  1  0
 11 12  1  6
 11 13  1  0
 12 14  1  0
 13 15  1  0
  2 16  1  0
 16 17  1  0
 17 18  1  0
 18 19  1  0
 16 20  1  0
 19 20  1  0
 20 21  2  0
 17 22  1  6
 22 23  1  0
 17 24  1  0
 24 25  1  0
M  END
$$$$
