1VCJ_IBA_A_1
     RDKit          3D

 25 26  0  0  0  0  0  0  0  0999 V2000
   36.9711    8.5751   60.7688 C   0  0  0  0  0  0  0  0  0  0  0  0
   36.0586    7.6802   60.2602 C   0  0  0  0  0  0  0  0  0  0  0  0
   36.2497    7.0238   59.0371 C   0  0  0  0  0  0  0  0  0  0  0  0
   37.4242    7.3448   58.3860 C   0  0  0  0  0  0  0  0  0  0  0  0
   38.3485    8.2481   58.8977 C   0  0  0  0  0  0  0  0  0  0  0  0
   38.1178    8.8697   60.1027 C   0  0  0  0  0  0  0  0  0  0  0  0
   39.5733    8.5351   58.1441 C   0  0  0  0  0  0  0  0  0  0  0  0
   39.8081    7.8798   56.9477 O   0  0  0  0  0  0  0  0  0  0  0  0
   40.3960    9.3733   58.5937 O   0  0  0  0  0  0  0  0  0  0  0  0
   35.2672    6.1599   58.5633 N   0  0  0  0  0  0  0  0  0  0  0  0
   34.8025    5.9824   57.2134 C   0  0  2  0  0  0  0  0  0  0  0  0
   33.6791    6.8898   56.8028 C   0  0  0  0  0  0  0  0  0  0  0  0
   34.6027    4.5418   56.8093 C   0  0  0  0  0  0  0  0  0  0  0  0
   33.7096    7.1515   55.2904 C   0  0  0  0  0  0  0  0  0  0  0  0
   35.9292    3.8070   57.0469 C   0  0  0  0  0  0  0  0  0  0  0  0
   34.8860    7.4582   61.0604 N   0  0  0  0  0  0  0  0  0  0  0  0
   34.1169    8.4483   61.7703 C   0  0  1  0  0  0  0  0  0  0  0  0
   33.0441    7.6360   62.4482 C   0  0  0  0  0  0  0  0  0  0  0  0
   33.5818    6.2315   62.5137 C   0  0  0  0  0  0  0  0  0  0  0  0
   34.3240    6.1572   61.2005 C   0  0  0  0  0  0  0  0  0  0  0  0
   34.4063    5.1648   60.4356 O   0  0  0  0  0  0  0  0  0  0  0  0
   34.9169    9.1165   62.8613 C   0  0  0  0  0  0  0  0  0  0  0  0
   34.1201    9.9071   63.6881 O   0  0  0  0  0  0  0  0  0  0  0  0
   33.5210    9.4755   60.8228 C   0  0  0  0  0  0  0  0  0  0  0  0
   32.5443   10.3184   61.4606 N   0  0  0  0  0  0  0  0  0  0  0  0
  1  2  2  0
  2  3  1  0
  3  4  2  0
  4  5  1  0
  1  6  1  0
  5  6  2  0
  5  7  1  0
  7  8  1  0
  7  9  2  0
  3 10  1  0
 10 11  1  0
 11 12  1  1
 11 13  1  0
 12 14  1  0
 13 15  1  0
  2 16  1  0
 16 17  1  0
 17 18  1  0
 18 19  1  0
 16 20  1  0
 19 20  1  0
 20 21  2  0
 17 22  1  1
 22 23  1  0
 17 24  1  0
 24 25  1  0
M  END
$$$$
