1VCJ_IBA_A_1
     RDKit          3D

 25 26  0  0  0  0  0  0  0  0999 V2000
   45.4314    9.8316   54.0507 C   0  0  0  0  0  0  0  0  0  0  0  0
   45.0963    9.6175   52.7339 C   0  0  0  0  0  0  0  0  0  0  0  0
   45.6768   10.3394   51.6826 C   0  0  0  0  0  0  0  0  0  0  0  0
   46.6104   11.2789   52.0728 C   0  0  0  0  0  0  0  0  0  0  0  0
   46.9517   11.4971   53.4025 C   0  0  0  0  0  0  0  0  0  0  0  0
   46.3544   10.7646   54.4016 C   0  0  0  0  0  0  0  0  0  0  0  0
   47.9540   12.5147   53.7344 C   0  0  0  0  0  0  0  0  0  0  0  0
   48.5985   13.1959   52.7164 O   0  0  0  0  0  0  0  0  0  0  0  0
   48.2163   12.7565   54.9404 O   0  0  0  0  0  0  0  0  0  0  0  0
   45.2627   10.0982   50.3763 N   0  0  0  0  0  0  0  0  0  0  0  0
   45.7544   10.6810   49.1564 C   0  0  2  0  0  0  0  0  0  0  0  0
   44.6975   11.0475   48.1552 C   0  0  0  0  0  0  0  0  0  0  0  0
   46.9395    9.9626   48.5581 C   0  0  0  0  0  0  0  0  0  0  0  0
   43.7163   12.0716   48.7427 C   0  0  0  0  0  0  0  0  0  0  0  0
   46.7459    9.9401   47.0356 C   0  0  0  0  0  0  0  0  0  0  0  0
   44.1051    8.6046   52.4966 N   0  0  0  0  0  0  0  0  0  0  0  0
   42.9045    8.3671   53.2569 C   0  0  1  0  0  0  0  0  0  0  0  0
   42.2893    7.1739   52.5729 C   0  0  0  0  0  0  0  0  0  0  0  0
   43.4178    6.5054   51.8343 C   0  0  0  0  0  0  0  0  0  0  0  0
   44.2131    7.7111   51.3929 C   0  0  0  0  0  0  0  0  0  0  0  0
   44.8161    7.8588   50.3015 O   0  0  0  0  0  0  0  0  0  0  0  0
   43.2021    7.9538   54.6772 C   0  0  0  0  0  0  0  0  0  0  0  0
   42.0479    7.5994   55.3742 O   0  0  0  0  0  0  0  0  0  0  0  0
   41.9755    9.5686   53.2210 C   0  0  0  0  0  0  0  0  0  0  0  0
   41.8540   10.1373   51.9046 N   0  0  0  0  0  0  0  0  0  0  0  0
  1  2  2  0
  2  3  1  0
  3  4  2  0
  4  5  1  0
  1  6  1  0
  5  6  2  0
  5  7  1  0
  7  8  1  0
  7  9  2  0
  3 10  1  0
 10 11  1  0
 11 12  1  6
 11 13  1  0
 12 14  1  0
 13 15  1  0
  2 16  1  0
 16 17  1  0
 17 18  1  0
 18 19  1  0
 16 20  1  0
 19 20  1  0
 20 21  2  0
 17 22  1  1
 22 23  1  0
 17 24  1  0
 24 25  1  0
M  END
$$$$
