7QSW_CAP_C_501
     RDKit          3D

 35 34  0  0  0  0  0  0  0  0999 V2000
   79.5047   74.6539   73.4479 C   0  0  1  0  0  0  0  0  0  0  0  0
   80.7914   74.6807   72.5747 C   0  0  1  0  0  0  0  0  0  0  0  0
   81.3107   76.1502   72.3284 C   0  0  1  0  0  0  0  0  0  0  0  0
   82.5827   76.6298   73.0997 C   0  0  1  0  0  0  0  0  0  0  0  0
   82.3200   77.4443   74.3714 C   0  0  1  0  0  0  0  0  0  0  0  0
   81.8793   73.8132   73.1805 C   0  0  0  0  0  0  0  0  0  0  0  0
   78.5406   75.5291   72.9061 O   0  0  0  0  0  0  0  0  0  0  0  0
   80.4508   74.1351   71.3172 O   0  0  0  0  0  0  0  0  0  0  0  0
   81.5743   76.3227   70.9550 O   0  0  0  0  0  0  0  0  0  0  0  0
   83.4315   75.5540   73.4116 O   0  0  0  0  0  0  0  0  0  0  0  0
   82.1533   78.8053   74.0487 O   0  0  0  0  0  0  0  0  0  0  0  0
   82.7502   74.3039   73.9499 O   0  0  0  0  0  0  0  0  0  0  0  0
   81.9385   72.4612   72.8537 O   0  0  0  0  0  0  0  0  0  0  0  0
   77.0069   74.7861   72.9949 P   0  0  1  0  0  5  0  0  0  0  0  0
   83.5486   79.6474   74.5475 P   0  0  1  0  0  5  0  0  0  0  0  0
   76.0244   75.6862   73.7117 O   0  0  0  0  0  0  0  0  0  0  0  0
   76.4506   74.5102   71.4214 O   0  0  0  0  0  0  0  0  0  0  0  0
   77.1233   73.3003   73.8016 O   0  0  0  0  0  0  0  0  0  0  0  0
   84.4868   79.7793   73.3693 O   0  0  0  0  0  0  0  0  0  0  0  0
   83.1289   81.1919   75.1015 O   0  0  0  0  0  0  0  0  0  0  0  0
   84.3257   78.7895   75.7835 O   0  0  0  0  0  0  0  0  0  0  0  0
   79.1184   73.6085   73.4527 H   0  0  0  0  0  0  0  0  0  0  0  0
   79.7291   74.9294   74.4947 H   0  0  0  0  0  0  0  0  0  0  0  0
   80.4957   76.8575   72.6129 H   0  0  0  0  0  0  0  0  0  0  0  0
   83.1272   77.3216   72.4121 H   0  0  0  0  0  0  0  0  0  0  0  0
   81.4350   77.0336   74.9007 H   0  0  0  0  0  0  0  0  0  0  0  0
   83.2039   77.3097   75.0366 H   0  0  0  0  0  0  0  0  0  0  0  0
   79.8194   73.3802   71.4594 H   0  0  0  0  0  0  0  0  0  0  0  0
   81.3354   75.4763   70.4931 H   0  0  0  0  0  0  0  0  0  0  0  0
   83.9542   75.3446   72.5939 H   0  0  0  0  0  0  0  0  0  0  0  0
   82.8261   71.9749   72.8120 H   0  0  0  0  0  0  0  0  0  0  0  0
   75.4854   74.3135   71.5253 H   0  0  0  0  0  0  0  0  0  0  0  0
   77.0483   73.5197   74.7645 H   0  0  0  0  0  0  0  0  0  0  0  0
   83.9922   81.6615   75.2241 H   0  0  0  0  0  0  0  0  0  0  0  0
   85.2239   79.2010   75.8526 H   0  0  0  0  0  0  0  0  0  0  0  0
  1  2  1  0
  2  3  1  0
  3  4  1  0
  4  5  1  0
  2  6  1  0
  1  7  1  0
  2  8  1  6
  3  9  1  0
  4 10  1  0
  5 11  1  0
  6 12  2  0
  6 13  1  0
 14  7  1  6
 15 11  1  6
 14 16  2  0
 14 17  1  0
 14 18  1  0
 15 19  2  0
 15 20  1  0
 15 21  1  0
  1 22  1  1
  1 23  1  0
  3 24  1  1
  4 25  1  6
  5 26  1  1
  5 27  1  0
  8 28  1  0
  9 29  1  0
 10 30  1  0
 13 31  1  0
 17 32  1  0
 18 33  1  0
 20 34  1  0
 21 35  1  0
M  END
