7PRI_7TI_BBB_406
     RDKit          3D

 28 28  0  0  0  0  0  0  0  0999 V2000
   12.1246   -1.7974   -7.9676 Cl  0  0  0  0  0  0  0  0  0  0  0  0
   14.8821   -4.4021   -3.1743 O   0  0  0  0  0  0  0  0  0  0  0  0
   14.5215   -3.4347   -4.2659 S   0  0  2  0  0  6  0  0  0  0  0  0
   14.9352   -4.0045   -5.5935 O   0  0  0  0  0  0  0  0  0  0  0  0
   15.3987   -1.9620   -4.0233 N   0  0  0  0  0  0  0  0  0  0  0  0
   12.7673   -3.1601   -4.2497 C   0  0  0  0  0  0  0  0  0  0  0  0
   12.0796   -3.1752   -3.0271 C   0  0  0  0  0  0  0  0  0  0  0  0
   10.6960   -2.9479   -2.9657 C   0  0  0  0  0  0  0  0  0  0  0  0
    9.8945   -2.9679   -1.3873 S   0  0  1  0  0  6  0  0  0  0  0  0
    9.5455   -4.3763   -0.9924 O   0  0  0  0  0  0  0  0  0  0  0  0
   10.9522   -2.2999   -0.1934 N   0  0  0  0  0  0  0  0  0  0  0  0
    8.6289   -2.1604   -1.4562 O   0  0  0  0  0  0  0  0  0  0  0  0
    9.9799   -2.7060   -4.1593 C   0  0  0  0  0  0  0  0  0  0  0  0
    8.5656   -2.4642   -4.1607 N   0  0  0  0  0  0  0  0  0  0  0  0
   10.6630   -2.7063   -5.3822 C   0  0  0  0  0  0  0  0  0  0  0  0
   12.0445   -2.9323   -5.4410 C   0  0  0  0  0  0  0  0  0  0  0  0
   12.6958   -2.9507   -6.7658 C   0  0  0  0  0  0  0  0  0  0  0  0
   13.7132   -3.7849   -7.0358 C   0  0  0  0  0  0  0  0  0  0  0  0
   14.2937   -4.9474   -5.8478 Cl  0  0  0  0  0  0  0  0  0  0  0  0
   14.5034   -3.7864   -8.6062 Cl  0  0  0  0  0  0  0  0  0  0  0  0
   15.2442   -1.6597   -3.0357 H   0  0  0  0  0  0  0  0  0  0  0  0
   14.9772   -1.2381   -4.6474 H   0  0  0  0  0  0  0  0  0  0  0  0
   12.6221   -3.3662   -2.1136 H   0  0  0  0  0  0  0  0  0  0  0  0
   10.4707   -2.3931    0.7289 H   0  0  0  0  0  0  0  0  0  0  0  0
   11.7972   -2.9131   -0.1570 H   0  0  0  0  0  0  0  0  0  0  0  0
    7.9957   -2.4517   -3.2886 H   0  0  0  0  0  0  0  0  0  0  0  0
    8.0606   -2.2890   -5.0580 H   0  0  0  0  0  0  0  0  0  0  0  0
   10.1124   -2.5325   -6.2997 H   0  0  0  0  0  0  0  0  0  0  0  0
  2  3  2  0
  3  4  2  0
  3  5  1  1
  3  6  1  0
  6  7  4  0
  7  8  4  0
  8  9  1  0
  9 10  2  0
  9 11  1  1
  9 12  2  0
  8 13  4  0
 13 14  1  0
 13 15  4  0
 15 16  4  0
  6 16  4  0
  1 17  1  0
 16 17  1  0
 17 18  2  3
 18 19  1  0
 18 20  1  0
  5 21  1  0
  5 22  1  0
  7 23  1  0
 11 24  1  0
 11 25  1  0
 14 26  1  0
 14 27  1  0
 15 28  1  0
M  END
