7SIU_9ID_B_301
     RDKit          3D

 31 34  0  0  0  0  0  0  0  0999 V2000
  -37.4093    2.2204   28.3093 N   0  0  0  0  0  0  0  0  0  0  0  0
  -37.2701   -0.5201   25.8228 N   0  0  0  0  0  0  0  0  0  0  0  0
  -37.0836    1.5359   24.7662 C   0  0  0  0  0  0  0  0  0  0  0  0
  -37.1270    0.1774   24.6625 C   0  0  0  0  0  0  0  0  0  0  0  0
  -37.3607    0.1346   26.9938 C   0  0  0  0  0  0  0  0  0  0  0  0
  -37.5153   -0.6268   28.2444 C   0  0  0  0  0  0  0  0  0  0  0  0
  -37.0301   -0.5452   23.3996 C   0  0  0  0  0  0  0  0  0  0  0  0
  -37.3480   -2.3420   21.8464 C   0  0  0  0  0  0  0  0  0  0  0  0
  -36.3247    0.0760   22.2479 C   0  0  0  0  0  0  0  0  0  0  0  0
  -37.4904    3.2248   19.1430 C   0  0  0  0  0  0  0  0  0  0  0  0
  -37.3819    5.1315   17.7213 C   0  0  0  0  0  0  0  0  0  0  0  0
  -38.8645    3.3498   19.1636 C   0  0  0  0  0  0  0  0  0  0  0  0
  -36.9751    4.5042   29.3236 C   0  0  0  0  0  0  0  0  0  0  0  0
  -35.6726    2.1596   20.1290 O   0  0  0  0  0  0  0  0  0  0  0  0
  -36.9085    2.1276   19.9078 C   0  0  0  0  0  0  0  0  0  0  0  0
  -39.5029    4.3734   18.4576 C   0  0  0  0  0  0  0  0  0  0  0  0
  -38.7472    5.2757   17.7268 C   0  0  0  0  0  0  0  0  0  0  0  0
  -36.7371    4.1208   18.4170 C   0  0  0  0  0  0  0  0  0  0  0  0
  -37.6707    1.0359   20.4082 N   0  0  0  0  0  0  0  0  0  0  0  0
  -36.9954   -0.1301   20.9334 C   0  0  2  0  0  0  0  0  0  0  0  0
  -37.9487   -1.2977   20.8948 C   0  0  0  0  0  0  0  0  0  0  0  0
  -37.5415   -1.7495   23.2058 C   0  0  0  0  0  0  0  0  0  0  0  0
  -37.1755    2.1992   25.9535 N   0  0  0  0  0  0  0  0  0  0  0  0
  -37.6324   -2.0527   28.2046 N   0  0  0  0  0  0  0  0  0  0  0  0
  -37.5405    0.0082   29.3329 O   0  0  0  0  0  0  0  0  0  0  0  0
  -37.3171    1.5091   27.1013 C   0  0  0  0  0  0  0  0  0  0  0  0
  -37.3311    3.6404   28.2949 C   0  0  0  0  0  0  0  0  0  0  0  0
  -37.6010    4.4910   27.2208 C   0  0  0  0  0  0  0  0  0  0  0  0
  -37.0426    5.7575   28.8512 N   0  0  0  0  0  0  0  0  0  0  0  0
  -37.4182    5.7672   27.5862 N   0  0  0  0  0  0  0  0  0  0  0  0
  -37.6183    6.8917   26.6930 C   0  0  0  0  0  0  0  0  0  0  0  0
  3  4  1  0
  2  4  2  0
  2  5  1  0
  5  6  1  0
  4  7  1  0
  7  9  1  0
 10 12  1  0
 14 15  2  0
 10 15  1  0
 12 16  2  0
 16 17  1  0
 11 17  2  0
 10 18  2  0
 11 18  1  0
 15 19  1  0
 20 19  1  1
  9 20  1  0
  8 21  1  0
 20 21  1  0
  8 22  1  0
  7 22  2  0
  3 23  2  0
  6 24  1  0
  6 25  2  0
 23 26  1  0
  5 26  2  0
  1 26  1  0
  1 27  1  0
 13 27  1  0
 27 28  2  0
 13 29  2  0
 28 30  1  0
 29 30  1  0
 30 31  1  0
M  END
$$$$
