
     RDKit          3D

 22 22  0  0  0  0  0  0  0  0999 V2000
    9.0370   20.0279    9.0955 C   0  0  1  0  0  0  0  0  0  0  0  0
   10.4301   19.8149    8.4882 C   0  0  2  0  0  0  0  0  0  0  0  0
   10.1091   19.4692    7.0498 C   0  0  1  0  0  0  0  0  0  0  0  0
    8.9144   20.3804    6.8044 C   0  0  1  0  0  0  0  0  0  0  0  0
    8.0900   20.0452    5.5633 C   0  0  0  0  0  0  0  0  0  0  0  0
    9.0281   21.1492    9.9530 O   0  0  0  0  0  0  0  0  0  0  0  0
   11.1317   18.7533    9.1284 O   0  0  0  0  0  0  0  0  0  0  0  0
   11.2122   19.7312    6.1893 O   0  0  0  0  0  0  0  0  0  0  0  0
    8.1212   20.2563    8.0013 O   0  0  0  0  0  0  0  0  0  0  0  0
    8.0283   18.6405    5.3469 O   0  0  0  0  0  0  0  0  0  0  0  0
    6.9641   17.8117    6.2046 P   0  0  0  0  0  5  0  0  0  0  0  0
    6.2237   18.5403    7.2693 O   0  0  0  0  0  0  0  0  0  0  0  0
    7.8177   16.5721    6.7234 O   0  0  0  0  0  0  0  0  0  0  0  0
    6.0369   17.1098    5.1084 O   0  0  0  0  0  0  0  0  0  0  0  0
    7.6135   21.8135   10.3024 P   0  0  2  0  0  5  0  0  0  0  0  0
    6.4708   21.4630    9.4073 O   0  0  0  0  0  0  0  0  0  0  0  0
    7.9050   23.3982   10.2916 O   0  0  0  0  0  0  0  0  0  0  0  0
    7.3831   21.4985   11.8341 O   0  0  0  0  0  0  0  0  0  0  0  0
    8.3762   20.8323   12.8574 P   0  0  0  0  0  5  0  0  0  0  0  0
    7.8309   20.6198   14.2272 O   0  0  0  0  0  0  0  0  0  0  0  0
    8.8617   19.4594   12.2120 O   0  0  0  0  0  0  0  0  0  0  0  0
    9.7192   21.6948   12.8065 O   0  0  0  0  0  0  0  0  0  0  0  0
  1  2  1  0
  2  3  1  0
  3  4  1  0
  4  5  1  6
  1  6  1  1
  2  7  1  1
  3  8  1  6
  1  9  1  0
  4  9  1  0
  5 10  1  0
 10 11  1  0
 11 12  2  0
 11 13  1  0
 11 14  1  0
 15  6  1  0
 15 16  2  0
 15 17  1  0
 15 18  1  0
 18 19  1  0
 19 20  2  0
 19 21  1  0
 19 22  1  0
M  END
