6XBO_5MC_A_401
     RDKit          3D

 22 23  0  0  0  0  0  0  0  0999 V2000
   14.4399  -14.4444   16.5853 P   0  0  2  0  0  0  0  0  0  0  0  0
   15.7162  -13.7593   16.2535 O   0  0  0  0  0  0  0  0  0  0  0  0
   13.0595  -13.6847   16.3127 O   0  0  0  0  0  0  0  0  0  0  0  0
   14.4966  -14.9940   18.0910 O   0  0  0  0  0  0  0  0  0  0  0  0
   14.4653  -15.7544   15.6831 O   0  0  0  0  0  0  0  0  0  0  0  0
   15.2633  -15.8123   14.5131 C   0  0  0  0  0  0  0  0  0  0  0  0
   15.0334  -17.1043   13.7685 C   0  0  1  0  0  0  0  0  0  0  0  0
   14.7485  -16.7875   12.3876 O   0  0  0  0  0  0  0  0  0  0  0  0
   16.2086  -18.0793   13.7699 C   0  0  1  0  0  0  0  0  0  0  0  0
   15.7170  -19.4166   13.9404 O   0  0  0  0  0  0  0  0  0  0  0  0
   16.8187  -17.9070   12.3722 C   0  0  1  0  0  0  0  0  0  0  0  0
   17.4256  -19.0752   11.8679 O   0  0  0  0  0  0  0  0  0  0  0  0
   15.6033  -17.5139   11.5340 C   0  0  2  0  0  0  0  0  0  0  0  0
   15.8697  -16.6286   10.3969 N   0  0  0  0  0  0  0  0  0  0  0  0
   15.9527  -17.1632    9.1678 C   0  0  0  0  0  0  0  0  0  0  0  0
   15.8757  -18.3757    9.0527 O   0  0  0  0  0  0  0  0  0  0  0  0
   16.1434  -16.3976    8.0927 N   0  0  0  0  0  0  0  0  0  0  0  0
   16.2197  -15.0770    8.1994 C   0  0  0  0  0  0  0  0  0  0  0  0
   16.4200  -14.3070    7.0718 N   0  0  0  0  0  0  0  0  0  0  0  0
   16.0927  -14.4771    9.4774 C   0  0  0  0  0  0  0  0  0  0  0  0
   15.9066  -15.2741   10.5668 C   0  0  0  0  0  0  0  0  0  0  0  0
   16.1666  -12.9744    9.6204 C   0  0  0  0  0  0  0  0  0  0  0  0
  1  2  2  0
  1  3  1  1
  1  4  1  0
  1  5  1  0
  5  6  1  0
  7  6  1  1
  7  8  1  0
  7  9  1  0
  9 10  1  6
  9 11  1  0
 11 12  1  6
  8 13  1  0
 11 13  1  0
 13 14  1  6
 14 15  1  0
 15 16  2  0
 15 17  1  0
 17 18  2  0
 18 19  1  0
 18 20  1  0
 14 21  1  0
 20 21  2  0
 20 22  1  0
M  END
