7EBG_J0L_A_502
     RDKit          3D

 14 15  0  0  0  0  0  0  0  0999 V2000
  -18.0243  -14.7953   -3.9357 C   0  0  0  0  0  0  0  0  0  0  0  0
  -19.3318  -14.3648   -3.8448 C   0  0  0  0  0  0  0  0  0  0  0  0
  -19.9900  -13.8737   -4.9530 C   0  0  0  0  0  0  0  0  0  0  0  0
  -17.3075  -14.7626   -5.1154 C   0  0  0  0  0  0  0  0  0  0  0  0
  -17.9834  -14.2652   -6.2245 C   0  0  0  0  0  0  0  0  0  0  0  0
  -19.2917  -13.8322   -6.1432 C   0  0  0  0  0  0  0  0  0  0  0  0
  -19.7681  -13.3525   -7.4679 C   0  0  1  0  0  0  0  0  0  0  0  0
  -18.5653  -13.5665   -8.3173 C   0  0  0  0  0  0  0  0  0  0  0  0
  -20.9629  -14.1531   -7.9229 C   0  0  0  0  0  0  0  0  0  0  0  0
  -20.0711  -11.8718   -7.4517 C   0  0  0  0  0  0  0  0  0  0  0  0
  -15.4243  -15.9525   -4.0726 C   0  0  0  0  0  0  0  0  0  0  0  0
  -15.9620  -15.2117   -5.1835 N   0  0  0  0  0  0  0  0  0  0  0  0
  -17.5022  -14.1150   -7.5563 N   0  0  0  0  0  0  0  0  0  0  0  0
  -18.4875  -13.3008   -9.5478 O   0  0  0  0  0  0  0  0  0  0  0  0
  1  2  2  0
  2  3  1  0
  1  4  1  0
  4  5  2  0
  3  6  2  0
  5  6  1  0
  6  7  1  0
  7  8  1  0
  7  9  1  6
  7 10  1  0
 11 12  1  0
  4 12  1  0
  5 13  1  0
  8 13  1  0
  8 14  2  0
M  END
$$$$
