@<TRIPOS>MOLECULE
1N1M_A3M_A_954
 30 30 0 0 0
SMALL
GASTEIGER

@<TRIPOS>ATOM
      1 C          -0.1883    2.5041   -1.7487 C.3     1  UNL1       -0.0357
      2 C          -0.7321    1.2020   -1.1742 C.3     1  UNL1        0.0148
      3 N           0.0166    0.9676    0.0504 N.am    1  UNL1       -0.3002
      4 C           1.0659    1.9515    0.2551 C.3     1  UNL1        0.0148
      5 C           1.1363    2.7536   -1.0356 C.3     1  UNL1       -0.0357
      6 C          -0.3014   -0.0252    1.0458 C.2     1  UNL1        0.2326
      7 C          -0.9724   -1.3418    0.7101 C.3     1  UNL1        0.0848
      8 C          -0.0977   -2.2307   -0.2263 C.3     1  UNL1       -0.0230
      9 C           1.2971   -2.4768    0.3744 C.3     1  UNL1       -0.0608
     10 O           0.0492    0.1760    2.2408 O.2     1  UNL1       -0.2739
     11 N          -2.3129   -1.0939    0.1666 N.3     1  UNL1       -0.3197
     12 C          -0.7749   -3.5832   -0.5022 C.3     1  UNL1       -0.0608
     13 H          -0.8919    3.3356   -1.5228 H       1  UNL1        0.0281
     14 H          -0.0476    2.4351   -2.8493 H       1  UNL1        0.0281
     15 H          -0.5638    0.3733   -1.8919 H       1  UNL1        0.0464
     16 H          -1.8154    1.3114   -0.9531 H       1  UNL1        0.0464
     17 H           0.7982    2.6125    1.1082 H       1  UNL1        0.0464
     18 H           2.0358    1.4468    0.4563 H       1  UNL1        0.0464
     19 H           1.2911    3.8357   -0.8336 H       1  UNL1        0.0281
     20 H           1.9721    2.3750   -1.6644 H       1  UNL1        0.0281
     21 H          -1.0948   -1.8976    1.6698 H       1  UNL1        0.0557
     22 H           0.0433   -1.7204   -1.2018 H       1  UNL1        0.0315
     23 H           1.2141   -2.9533    1.3748 H       1  UNL1        0.0233
     24 H           1.8550   -1.5221    0.4743 H       1  UNL1        0.0233
     25 H           1.8923   -3.1399   -0.2893 H       1  UNL1        0.0233
     26 H          -2.2826   -1.0562   -0.8776 H       1  UNL1        0.1189
     27 H          -2.9349   -1.8958    0.4204 H       1  UNL1        0.1189
     28 H          -1.7308   -3.4411   -1.0478 H       1  UNL1        0.0233
     29 H          -0.1230   -4.2187   -1.1391 H       1  UNL1        0.0233
     30 H          -0.9779   -4.1210    0.4487 H       1  UNL1        0.0233
@<TRIPOS>BOND
     1     1     2    1
     2     2     3    1
     3     3     4    1
     4     1     5    1
     5     4     5    1
     6     3     6   am
     7     6     7    1
     8     7     8    1
     9     8     9    1
    10     6    10    2
    11     7    11    1
    12     8    12    1
    13     1    13    1
    14     1    14    1
    15     2    15    1
    16     2    16    1
    17     4    17    1
    18     4    18    1
    19     5    19    1
    20     5    20    1
    21     7    21    1
    22     8    22    1
    23     9    23    1
    24     9    24    1
    25     9    25    1
    26    11    26    1
    27    11    27    1
    28    12    28    1
    29    12    29    1
    30    12    30    1
