1N1M_A3M_A_954
     RDKit          3D

 30 30  0  0  0  0  0  0  0  0999 V2000
   84.8629   77.1311   98.5145 C   0  0  0  0  0  0  0  0  0  0  0  0
   84.1311   75.7201   98.7158 C   0  0  0  0  0  0  0  0  0  0  0  0
   83.0491   75.7058   97.7190 N   0  0  0  0  0  0  0  0  0  0  0  0
   82.6536   77.1239   97.5855 C   0  0  0  0  0  0  0  0  0  0  0  0
   84.0266   77.8023   97.3419 C   0  0  0  0  0  0  0  0  0  0  0  0
   81.9827   74.7517   98.0209 C   0  0  0  0  0  0  0  0  0  0  0  0
   80.6543   74.6818   97.3968 C   0  0  2  0  0  0  0  0  0  0  0  0
   79.4462   74.9430   98.2564 C   0  0  1  0  0  0  0  0  0  0  0  0
   79.2415   76.3483   98.6197 C   0  0  0  0  0  0  0  0  0  0  0  0
   82.2340   73.8072   98.9868 O   0  0  0  0  0  0  0  0  0  0  0  0
   80.4444   73.3616   96.7155 N   0  0  0  0  0  0  0  0  0  0  0  0
   78.0280   74.4924   97.4454 C   0  0  0  0  0  0  0  0  0  0  0  0
   85.8880   76.9973   98.2267 H   0  0  0  0  0  0  0  0  0  0  0  0
   84.8859   77.7236   99.4074 H   0  0  0  0  0  0  0  0  0  0  0  0
   83.7285   75.6433   99.7063 H   0  0  0  0  0  0  0  0  0  0  0  0
   84.8050   74.8984   98.5885 H   0  0  0  0  0  0  0  0  0  0  0  0
   82.1855   77.4900   98.4797 H   0  0  0  0  0  0  0  0  0  0  0  0
   81.9360   77.3013   96.8151 H   0  0  0  0  0  0  0  0  0  0  0  0
   84.4295   77.5619   96.3767 H   0  0  0  0  0  0  0  0  0  0  0  0
   84.0122   78.8700   97.3510 H   0  0  0  0  0  0  0  0  0  0  0  0
   80.7050   75.5041   96.7193 H   0  0  0  0  0  0  0  0  0  0  0  0
   79.6366   74.3756   99.1432 H   0  0  0  0  0  0  0  0  0  0  0  0
   79.0506   76.9206   97.7363 H   0  0  0  0  0  0  0  0  0  0  0  0
   80.1225   76.7197   99.1032 H   0  0  0  0  0  0  0  0  0  0  0  0
   78.4027   76.4263   99.2839 H   0  0  0  0  0  0  0  0  0  0  0  0
   80.4060   72.6259   97.4167 H   0  0  0  0  0  0  0  0  0  0  0  0
   81.2169   73.1769   96.0713 H   0  0  0  0  0  0  0  0  0  0  0  0
   77.9066   75.1011   96.5741 H   0  0  0  0  0  0  0  0  0  0  0  0
   77.1827   74.6223   98.0930 H   0  0  0  0  0  0  0  0  0  0  0  0
   78.0977   73.4689   97.1563 H   0  0  0  0  0  0  0  0  0  0  0  0
  1  2  1  0
  2  3  1  0
  3  4  1  0
  1  5  1  0
  4  5  1  0
  3  6  1  0
  6  7  1  0
  7  8  1  0
  8  9  1  0
  6 10  2  0
  7 11  1  0
  8 12  1  0
  1 13  1  0
  1 14  1  0
  2 15  1  0
  2 16  1  0
  4 17  1  0
  4 18  1  0
  5 19  1  0
  5 20  1  0
  7 21  1  6
  8 22  1  1
  9 23  1  0
  9 24  1  0
  9 25  1  0
 11 26  1  0
 11 27  1  0
 12 28  1  0
 12 29  1  0
 12 30  1  0
M  END
