8AQL_PLG_B_601
     RDKit          3D

 20 20  0  0  0  0  0  0  0  0999 V2000
    2.4522   61.9584   37.1576 N   0  0  0  0  0  0  0  0  0  0  0  0
    2.4411   62.8703   38.1325 C   0  0  0  0  0  0  0  0  0  0  0  0
    2.9010   62.4172   39.4915 C   0  0  0  0  0  0  0  0  0  0  0  0
    2.0046   64.1856   37.8290 C   0  0  0  0  0  0  0  0  0  0  0  0
    2.0073   65.1116   38.8538 O   0  0  0  0  0  0  0  0  0  0  0  0
    1.6079   64.5319   36.5580 C   0  0  0  0  0  0  0  0  0  0  0  0
    1.1304   65.9126   36.1384 C   0  0  0  0  0  0  0  0  0  0  0  0
    1.6294   63.5734   35.5802 C   0  0  0  0  0  0  0  0  0  0  0  0
    2.0525   62.2911   35.9222 C   0  0  0  0  0  0  0  0  0  0  0  0
    1.1343   63.8103   34.1542 C   0  0  0  0  0  0  0  0  0  0  0  0
    1.3362   65.0391   33.5335 O   0  0  0  0  0  0  0  0  0  0  0  0
    0.5291   65.3180   32.1848 P   0  0  2  0  0  0  0  0  0  0  0  0
   -0.4465   66.4728   32.4864 O   0  0  0  0  0  0  0  0  0  0  0  0
   -0.2316   64.0547   31.8548 O   0  0  0  0  0  0  0  0  0  0  0  0
    1.5397   65.6950   31.1771 O   0  0  0  0  0  0  0  0  0  0  0  0
    0.9504   68.8294   37.9396 C   0  0  0  0  0  0  0  0  0  0  0  0
    0.5419   69.3015   36.8405 O   0  0  0  0  0  0  0  0  0  0  0  0
    1.1789   69.6314   38.8699 O   0  0  0  0  0  0  0  0  0  0  0  0
    1.1484   67.3330   38.1157 C   0  0  0  0  0  0  0  0  0  0  0  0
    0.3870   66.6453   37.1059 N   0  0  0  0  0  0  0  0  0  0  0  0
  1  2  2  0
  2  3  1  0
  2  4  1  0
  4  5  1  0
  4  6  2  0
  6  7  1  0
  6  8  1  0
  1  9  1  0
  8  9  2  0
  8 10  1  0
 10 11  1  0
 11 12  1  0
 12 13  2  0
 12 14  1  6
 12 15  1  0
 16 17  2  0
 16 18  1  0
 16 19  1  0
  7 20  1  0
 19 20  1  0
M  END
