
     RDKit          3D

 29 31  0  0  0  0  0  0  0  0999 V2000
   25.2204   40.0602  -21.0230 C   0  0  0  0  0  0  0  0  0  0  0  0
   26.1958   40.8443  -21.8917 C   0  0  0  0  0  0  0  0  0  0  0  0
   25.4446   41.5675  -23.0218 C   0  0  0  0  0  0  0  0  0  0  0  0
   26.2873   42.6609  -23.6586 C   0  0  0  0  0  0  0  0  0  0  0  0
   27.5742   42.4085  -24.1599 C   0  0  0  0  0  0  0  0  0  0  0  0
   25.7789   43.9674  -23.7444 C   0  0  0  0  0  0  0  0  0  0  0  0
   22.4729   41.7155  -18.4669 C   0  0  0  0  0  0  0  0  0  0  0  0
   23.8008   39.4899  -18.3400 O   0  0  0  0  0  0  0  0  0  0  0  0
   23.1171   40.3090  -19.3174 S   0  0  0  0  0  6  0  0  0  0  0  0
   22.0442   39.7740  -20.1275 O   0  0  0  0  0  0  0  0  0  0  0  0
   23.3466   42.6458  -17.9297 C   0  0  0  0  0  0  0  0  0  0  0  0
   22.9366   43.7480  -17.2562 N   0  0  0  0  0  0  0  0  0  0  0  0
   21.5895   43.8957  -17.0903 C   0  0  0  0  0  0  0  0  0  0  0  0
   21.1393   45.1152  -16.3450 C   0  0  0  0  0  0  0  0  0  0  0  0
   20.7231   46.1089  -16.9288 O   0  0  0  0  0  0  0  0  0  0  0  0
   21.2367   45.0189  -14.9788 N   0  0  0  0  0  0  0  0  0  0  0  0
   20.6968   46.0240  -14.0854 C   0  0  0  0  0  0  0  0  0  0  0  0
   21.5155   47.3044  -14.0842 C   0  0  0  0  0  0  0  0  0  0  0  0
   22.8041   47.1341  -14.4580 O   0  0  0  0  0  0  0  0  0  0  0  0
   21.1088   48.4158  -13.7832 O   0  0  0  0  0  0  0  0  0  0  0  0
   20.6480   42.9897  -17.5676 C   0  0  0  0  0  0  0  0  0  0  0  0
   21.1018   41.8719  -18.2640 C   0  0  0  0  0  0  0  0  0  0  0  0
   24.2791   40.9826  -20.3512 N   0  0  0  0  0  0  0  0  0  0  0  0
   23.9568   42.2422  -21.0597 C   0  0  0  0  0  0  0  0  0  0  0  0
   24.0605   42.0730  -22.5706 C   0  0  0  0  0  0  0  0  0  0  0  0
   26.5354   44.9932  -24.3172 C   0  0  0  0  0  0  0  0  0  0  0  0
   27.8086   44.7220  -24.8093 C   0  0  0  0  0  0  0  0  0  0  0  0
   28.7408   45.9839  -25.5145 Cl  0  0  0  0  0  0  0  0  0  0  0  0
   28.3309   43.4342  -24.7332 C   0  0  0  0  0  0  0  0  0  0  0  0
  1  2  1  0
  2  3  1  0
  3  4  1  0
  4  5  4  0
  4  6  4  0
  8  9  2  0
  7  9  1  0
  9 10  2  0
  7 11  4  0
 11 12  4  0
 12 13  4  0
 13 14  1  0
 14 15  2  0
 14 16  1  0
 16 17  1  0
 17 18  1  0
 18 19  1  0
 18 20  2  0
 13 21  4  0
  7 22  4  0
 21 22  4  0
  1 23  1  0
  9 23  1  0
 23 24  1  0
  3 25  1  0
 24 25  1  0
  6 26  4  0
 26 27  4  0
 27 28  1  0
 27 29  4  0
  5 29  4  0
M  END
