2BR1_PFP_A_1277
     RDKit          3D

 50 53  0  0  0  0  0  0  0  0999 V2000
   -2.7480   -2.3553    4.1495 C   0  0  0  0  0  0  0  0  0  0  0  0
   -2.9473   -2.3973    2.7403 O   0  0  0  0  0  0  0  0  0  0  0  0
   -2.0837   -1.8144    1.8011 C   0  0  0  0  0  0  0  0  0  0  0  0
   -2.4005   -1.9333    0.4427 C   0  0  0  0  0  0  0  0  0  0  0  0
   -1.5713   -1.3716   -0.5316 C   0  0  0  0  0  0  0  0  0  0  0  0
   -0.9168   -1.1205    2.1764 C   0  0  0  0  0  0  0  0  0  0  0  0
   -0.0894   -0.5550    1.2019 C   0  0  0  0  0  0  0  0  0  0  0  0
   -0.4160   -0.6708   -0.1563 C   0  0  0  0  0  0  0  0  0  0  0  0
    0.4682   -0.0924   -1.1844 C   0  0  0  0  0  0  0  0  0  0  0  0
    0.1461    0.8428   -2.1579 C   0  0  0  0  0  0  0  0  0  0  0  0
   -1.0082    1.5653   -2.4880 C   0  0  0  0  0  0  0  0  0  0  0  0
   -2.2016    1.5098   -1.6952 N   0  0  0  0  0  0  0  0  0  0  0  0
   -3.4960    1.9111   -2.2438 C   0  0  0  0  0  0  0  0  0  0  0  0
   -4.6125    1.6950   -1.2201 C   0  0  0  0  0  0  0  0  0  0  0  0
   -5.8452    2.0941   -1.7542 O   0  0  0  0  0  0  0  0  0  0  0  0
   -0.9443    2.3951   -3.5727 N   0  0  0  0  0  0  0  0  0  0  0  0
    0.2053    2.5440   -4.2998 C   0  0  0  0  0  0  0  0  0  0  0  0
    1.3382    1.8712   -3.9466 N   0  0  0  0  0  0  0  0  0  0  0  0
    1.2882    1.0363   -2.8820 C   0  0  0  0  0  0  0  0  0  0  0  0
    2.2816    0.3219   -2.4186 O   0  0  0  0  0  0  0  0  0  0  0  0
    1.8257   -0.3789   -1.3959 C   0  0  0  0  0  0  0  0  0  0  0  0
    2.6770   -1.3200   -0.6366 C   0  0  0  0  0  0  0  0  0  0  0  0
    2.1729   -2.5383   -0.1507 C   0  0  0  0  0  0  0  0  0  0  0  0
    2.9998   -3.4144    0.5583 C   0  0  0  0  0  0  0  0  0  0  0  0
    4.3519   -3.0923    0.7795 C   0  0  0  0  0  0  0  0  0  0  0  0
    5.2208   -3.9361    1.4873 O   0  0  0  0  0  0  0  0  0  0  0  0
    4.8417   -5.1850    2.0563 C   0  0  0  0  0  0  0  0  0  0  0  0
    4.8574   -1.8896    0.2741 C   0  0  0  0  0  0  0  0  0  0  0  0
    4.0308   -1.0132   -0.4346 C   0  0  0  0  0  0  0  0  0  0  0  0
   -3.5794   -2.8931    4.6493 H   0  0  0  0  0  0  0  0  0  0  0  0
   -2.7419   -1.3026    4.5030 H   0  0  0  0  0  0  0  0  0  0  0  0
   -1.7916   -2.8535    4.4148 H   0  0  0  0  0  0  0  0  0  0  0  0
   -3.2931   -2.4666    0.1409 H   0  0  0  0  0  0  0  0  0  0  0  0
   -1.8297   -1.4807   -1.5779 H   0  0  0  0  0  0  0  0  0  0  0  0
   -0.6408   -1.0130    3.2163 H   0  0  0  0  0  0  0  0  0  0  0  0
    0.8050   -0.0248    1.5059 H   0  0  0  0  0  0  0  0  0  0  0  0
   -2.1366    1.2357   -0.6907 H   0  0  0  0  0  0  0  0  0  0  0  0
   -3.4609    2.9850   -2.5286 H   0  0  0  0  0  0  0  0  0  0  0  0
   -3.7108    1.3061   -3.1513 H   0  0  0  0  0  0  0  0  0  0  0  0
   -4.4051    2.3052   -0.3154 H   0  0  0  0  0  0  0  0  0  0  0  0
   -4.6504    0.6242   -0.9139 H   0  0  0  0  0  0  0  0  0  0  0  0
   -6.1305    1.3758   -2.3775 H   0  0  0  0  0  0  0  0  0  0  0  0
    0.2201    3.2115   -5.1502 H   0  0  0  0  0  0  0  0  0  0  0  0
    1.1481   -2.8289   -0.3374 H   0  0  0  0  0  0  0  0  0  0  0  0
    2.5802   -4.3423    0.9222 H   0  0  0  0  0  0  0  0  0  0  0  0
    4.0401   -5.0337    2.8099 H   0  0  0  0  0  0  0  0  0  0  0  0
    5.7214   -5.6364    2.5590 H   0  0  0  0  0  0  0  0  0  0  0  0
    4.4930   -5.8769    1.2607 H   0  0  0  0  0  0  0  0  0  0  0  0
    5.8973   -1.6327    0.4317 H   0  0  0  0  0  0  0  0  0  0  0  0
    4.4458   -0.0869   -0.8131 H   0  0  0  0  0  0  0  0  0  0  0  0
  1  2  1  0
  2  3  1  0
  3  4  2  0
  4  5  1  0
  3  6  1  0
  6  7  2  0
  5  8  2  0
  7  8  1  0
  8  9  1  0
  9 10  1  0
 10 11  2  0
 11 12  1  0
 12 13  1  0
 13 14  1  0
 14 15  1  0
 11 16  1  0
 16 17  2  0
 17 18  1  0
 10 19  1  0
 18 19  2  0
 19 20  1  0
  9 21  2  0
 20 21  1  0
 21 22  1  0
 22 23  2  0
 23 24  1  0
 24 25  2  0
 25 26  1  0
 26 27  1  0
 25 28  1  0
 22 29  1  0
 28 29  2  0
  1 30  1  0
  1 31  1  0
  1 32  1  0
  4 33  1  0
  5 34  1  0
  6 35  1  0
  7 36  1  0
 12 37  1  0
 13 38  1  0
 13 39  1  0
 14 40  1  0
 14 41  1  0
 15 42  1  0
 17 43  1  0
 23 44  1  0
 24 45  1  0
 27 46  1  0
 27 47  1  0
 27 48  1  0
 28 49  1  0
 29 50  1  0
M  END
