@<TRIPOS>MOLECULE
2BR1_PFP_A_1277
 50 53 0 0 0
SMALL
GASTEIGER

@<TRIPOS>ATOM
      1 C          18.9620   -8.0070   12.9180 C.3     1  UNL1        0.0788
      2 O          17.6310   -7.6670   12.5680 O.3     1  UNL1       -0.4951
      3 C          17.6080   -6.4090   11.9280 C.ar    1  UNL1        0.1201
      4 C          18.3940   -5.3380   12.4250 C.ar    1  UNL1       -0.0194
      5 C          18.3210   -4.0440   11.7950 C.ar    1  UNL1       -0.0504
      6 C          16.7450   -6.1960   10.8440 C.ar    1  UNL1       -0.0194
      7 C          16.6770   -4.9250   10.2200 C.ar    1  UNL1       -0.0504
      8 C          17.4810   -3.8550   10.6780 C.ar    1  UNL1       -0.0133
      9 C          17.3310   -2.4950   10.0540 C.ar    1  UNL1        0.0406
     10 C          16.1970   -1.8060    9.9290 C.ar    1  UNL1        0.0878
     11 C          14.9220   -1.9560   10.4670 C.ar    1  UNL1        0.1336
     12 N          14.6190   -3.0080   11.2120 N.pl3   1  UNL1       -0.3262
     13 C          13.2030   -3.2550   11.6010 C.3     1  UNL1        0.0336
     14 C          12.5240   -2.3810   12.7310 C.3     1  UNL1        0.0597
     15 O          12.1040   -0.9840   12.4450 O.3     1  UNL1       -0.3935
     16 N          13.9850   -1.0330   10.2090 N.ar    1  UNL1       -0.2201
     17 C          14.2790    0.0380    9.4700 C.ar    1  UNL1        0.1219
     18 N          15.5230    0.2070    8.9640 N.ar    1  UNL1       -0.2005
     19 C          16.4790   -0.7010    9.1890 C.ar    1  UNL1        0.2331
     20 O          17.7140   -0.7390    8.8380 O.2     1  UNL1       -0.4360
     21 C          18.2670   -1.8180    9.2740 C.ar    1  UNL1        0.1460
     22 C          19.5820   -2.1570    9.0700 C.ar    1  UNL1        0.0182
     23 C          20.4510   -1.2110    8.5100 C.ar    1  UNL1       -0.0476
     24 C          21.7700   -1.5370    8.2650 C.ar    1  UNL1       -0.0193
     25 C          22.2320   -2.8040    8.5440 C.ar    1  UNL1        0.1201
     26 O          23.5290   -3.1180    8.3000 O.3     1  UNL1       -0.4951
     27 C          24.5290   -2.0490    8.1770 C.3     1  UNL1        0.0788
     28 C          21.3610   -3.7670    9.0800 C.ar    1  UNL1       -0.0193
     29 C          20.0290   -3.4400    9.3210 C.ar    1  UNL1       -0.0476
     30 H          18.9708   -8.9611   13.4022 H       1  UNL1        0.0660
     31 H          19.3565   -7.2664   13.5819 H       1  UNL1        0.0660
     32 H          19.5633   -8.0501   12.0340 H       1  UNL1        0.0660
     33 H          19.0161   -5.4850   13.2352 H       1  UNL1        0.0654
     34 H          18.8816   -3.2582   12.1600 H       1  UNL1        0.0625
     35 H          16.1556   -6.9693   10.4981 H       1  UNL1        0.0654
     36 H          16.0355   -4.7791    9.4249 H       1  UNL1        0.0625
     37 H          15.3273   -3.6246   11.5076 H       1  UNL1        0.1476
     38 H          13.1455   -4.2737   11.9233 H       1  UNL1        0.0484
     39 H          12.6576   -2.9827   10.7216 H       1  UNL1        0.0484
     40 H          13.2192   -2.3334   13.5430 H       1  UNL1        0.0573
     41 H          11.5956   -2.8842   12.9035 H       1  UNL1        0.0573
     42 H          12.8880   -0.4395   12.2726 H       1  UNL1        0.2095
     43 H          13.5507    0.7447    9.2822 H       1  UNL1        0.1049
     44 H          20.1036   -0.2669    8.2798 H       1  UNL1        0.0626
     45 H          22.4109   -0.8300    7.8721 H       1  UNL1        0.0654
     46 H          25.4898   -2.4796    7.9864 H       1  UNL1        0.0660
     47 H          24.5641   -1.4871    9.0869 H       1  UNL1        0.0660
     48 H          24.2615   -1.4017    7.3681 H       1  UNL1        0.0660
     49 H          21.7076   -4.7150    9.2948 H       1  UNL1        0.0654
     50 H          19.3783   -4.1532    9.6857 H       1  UNL1        0.0626
@<TRIPOS>BOND
     1     1     2    1
     2     2     3    1
     3     3     4   ar
     4     4     5   ar
     5     3     6   ar
     6     6     7   ar
     7     5     8   ar
     8     7     8   ar
     9     8     9    1
    10     9    10   ar
    11    10    11   ar
    12    11    12    1
    13    12    13    1
    14    13    14    1
    15    14    15    1
    16    11    16   ar
    17    16    17   ar
    18    17    18   ar
    19    10    19   ar
    20    18    19   ar
    21    19    20   ar
    22     9    21   ar
    23    20    21   ar
    24    21    22    1
    25    22    23   ar
    26    23    24   ar
    27    24    25   ar
    28    25    26    1
    29    26    27    1
    30    25    28   ar
    31    22    29   ar
    32    28    29   ar
    33     1    30    1
    34     1    31    1
    35     1    32    1
    36     4    33    1
    37     5    34    1
    38     6    35    1
    39     7    36    1
    40    12    37    1
    41    13    38    1
    42    13    39    1
    43    14    40    1
    44    14    41    1
    45    15    42    1
    46    17    43    1
    47    23    44    1
    48    24    45    1
    49    27    46    1
    50    27    47    1
    51    27    48    1
    52    28    49    1
    53    29    50    1
