
     RDKit          3D

 23 24  0  0  0  0  0  0  0  0999 V2000
   38.0813   22.6046   15.4043 O   0  0  0  0  0  0  0  0  0  0  0  0
   39.2994   22.7876   15.9563 C   0  0  0  0  0  0  0  0  0  0  0  0
   40.2632   23.0256   15.2488 O   0  0  0  0  0  0  0  0  0  0  0  0
   39.2602   22.6554   17.4593 C   0  0  0  0  0  0  0  0  0  0  0  0
   39.9645   23.7803   18.1827 C   0  0  0  0  0  0  0  0  0  0  0  0
   39.3966   24.3559   19.3284 C   0  0  0  0  0  0  0  0  0  0  0  0
   40.0615   25.3778   20.0135 C   0  0  0  0  0  0  0  0  0  0  0  0
   41.3144   25.8221   19.5770 C   0  0  0  0  0  0  0  0  0  0  0  0
   41.9399   26.8481   20.2450 O   0  0  0  0  0  0  0  0  0  0  0  0
   42.3706   26.6086   21.5347 C   0  0  0  0  0  0  0  0  0  0  0  0
   43.2313   27.4294   22.2609 C   0  0  0  0  0  0  0  0  0  0  0  0
   43.5868   27.0728   23.5605 C   0  0  0  0  0  0  0  0  0  0  0  0
   43.0946   25.8978   24.1295 C   0  0  0  0  0  0  0  0  0  0  0  0
   43.4749   25.6715   25.4225 O   0  0  0  0  0  0  0  0  0  0  0  0
   42.2643   25.0267   23.4076 C   0  0  0  0  0  0  0  0  0  0  0  0
   41.9008   25.4177   22.1047 C   0  0  0  0  0  0  0  0  0  0  0  0
   41.7510   23.7211   23.9960 C   0  0  0  0  0  0  0  0  0  0  0  0
   41.5044   23.7692   25.5096 C   0  0  0  0  0  0  0  0  0  0  0  0
   42.7021   22.5740   23.6481 C   0  0  0  0  0  0  0  0  0  0  0  0
   41.8747   25.2692   18.4198 C   0  0  0  0  0  0  0  0  0  0  0  0
   41.2094   24.2463   17.7352 C   0  0  0  0  0  0  0  0  0  0  0  0
   43.3792   25.8271   17.7797 Cl  0  0  0  0  0  0  0  0  0  0  0  0
   39.2980   26.0588   21.4049 Cl  0  0  0  0  0  0  0  0  0  0  0  0
  1  2  1  0
  2  3  2  0
  2  4  1  0
  4  5  1  0
  5  6  4  0
  6  7  4  0
  7  8  4  0
  8  9  1  0
  9 10  1  0
 10 11  4  0
 11 12  4  0
 12 13  4  0
 13 14  1  0
 13 15  4  0
 10 16  4  0
 15 16  4  0
 15 17  1  0
 17 18  1  0
 17 19  1  0
  8 20  4  0
  5 21  4  0
 20 21  4  0
 20 22  1  0
  7 23  1  0
M  END
