7LMO_NYO_B_501
     RDKit          3D

 67 71  0  0  0  0  0  0  0  0999 V2000
   -4.4483   -0.9097   -0.8017 C   0  0  0  0  0  0  0  0  0  0  0  0
   -3.4404   -0.0927   -0.2602 C   0  0  0  0  0  0  0  0  0  0  0  0
   -2.1222   -0.1765   -0.7114 C   0  0  0  0  0  0  0  0  0  0  0  0
    1.4177   -3.8730   -1.8200 N   0  0  0  0  0  0  0  0  0  0  0  0
   -5.6183   -1.1857    1.7788 N   0  0  0  0  0  4  0  0  0  0  0  0
   -6.1690   -0.0329    0.8631 C   0  0  0  0  0  0  0  0  0  0  0  0
   -1.0416   -3.9447   -4.4680 O   0  0  0  0  0  0  0  0  0  0  0  0
   -1.2363   -3.0297   -3.6239 C   0  0  0  0  0  0  0  0  0  0  0  0
   -2.4587   -2.8621   -3.1420 O   0  0  0  0  0  3  0  0  0  0  0  0
   -2.7601   -1.9448   -2.2356 C   0  0  0  0  0  0  0  0  0  0  0  0
   -4.0811   -1.8487   -1.7846 C   0  0  0  0  0  0  0  0  0  0  0  0
   -5.8267   -0.7881   -0.3538 N   0  0  0  0  0  0  0  0  0  0  0  0
   -5.0150   -0.0530    1.8642 C   0  0  0  0  0  0  0  0  0  0  0  0
   -6.9234   -1.4383   -1.0922 C   0  0  0  0  0  0  0  0  0  0  0  0
   -8.1645   -1.5882   -0.2135 C   0  0  0  0  0  0  0  0  0  0  0  0
   -0.1735   -2.1994   -3.2090 C   0  0  0  0  0  0  0  0  0  0  0  0
   -0.4519   -1.1717   -2.2635 C   0  0  0  0  0  0  0  0  0  0  0  0
    0.6219   -0.2063   -1.7979 C   0  0  0  0  0  0  0  0  0  0  0  0
   -1.7648   -1.0827   -1.7298 C   0  0  0  0  0  0  0  0  0  0  0  0
    1.2020   -2.4142   -3.8249 C   0  0  0  0  0  0  0  0  0  0  0  0
    2.1429   -3.2029   -2.8991 C   0  0  0  0  0  0  0  0  0  0  0  0
    1.0763   -5.2444   -1.7242 C   0  0  0  0  0  0  0  0  0  0  0  0
    1.4530   -6.1178   -2.5490 O   0  0  0  0  0  0  0  0  0  0  0  0
    0.2470   -5.5304   -0.6054 N   0  0  0  0  0  0  0  0  0  0  0  0
   -0.0133   -4.2731    0.1047 C   0  0  2  0  0  0  0  0  0  0  0  0
    0.7611   -3.2688   -0.7113 C   0  0  0  0  0  0  0  0  0  0  0  0
    0.8327   -2.0374   -0.4510 O   0  0  0  0  0  0  0  0  0  0  0  0
    0.4695   -4.3562    1.5599 C   0  0  0  0  0  0  0  0  0  0  0  0
   -0.7877   -4.4710    2.4130 C   0  0  0  0  0  0  0  0  0  0  0  0
   -1.9059   -4.1346    1.5449 N   0  0  0  0  0  0  0  0  0  0  0  0
   -1.5166   -3.9723    0.1535 C   0  0  0  0  0  0  0  0  0  0  0  0
   -3.2332   -3.9105    2.0666 C   0  0  0  0  0  0  0  0  0  0  0  0
   -3.7265   -4.7516    2.8664 O   0  0  0  0  0  0  0  0  0  0  0  0
   -4.0508   -2.7317    1.7018 C   0  0  0  0  0  0  0  0  0  0  0  0
   -3.9285   -2.0221    0.5619 N   0  0  0  0  0  0  0  0  0  0  0  0
   -4.9010   -1.0903    0.6454 C   0  0  0  0  0  0  0  0  0  0  0  0
   -5.0924   -2.2212    2.4492 C   0  0  0  0  0  0  0  0  0  0  0  0
   -3.6606    0.6146    0.5235 H   0  0  0  0  0  0  0  0  0  0  0  0
   -1.3958    0.4666   -0.2366 H   0  0  0  0  0  0  0  0  0  0  0  0
   -6.4244   -0.5874    2.0676 H   0  0  0  0  0  0  0  0  0  0  0  0
   -6.4396    1.0151    0.6131 H   0  0  0  0  0  0  0  0  0  0  0  0
   -7.0653   -0.4761    1.3468 H   0  0  0  0  0  0  0  0  0  0  0  0
   -4.8144   -2.5117   -2.2193 H   0  0  0  0  0  0  0  0  0  0  0  0
   -5.2579    0.6083    2.7229 H   0  0  0  0  0  0  0  0  0  0  0  0
   -4.8554   -1.0817    2.2490 H   0  0  0  0  0  0  0  0  0  0  0  0
   -4.0738    0.3003    1.3949 H   0  0  0  0  0  0  0  0  0  0  0  0
   -7.1739   -0.8662   -2.0108 H   0  0  0  0  0  0  0  0  0  0  0  0
   -6.6073   -2.4466   -1.4351 H   0  0  0  0  0  0  0  0  0  0  0  0
   -8.9976   -2.0038   -0.8185 H   0  0  0  0  0  0  0  0  0  0  0  0
   -8.4780   -0.6093    0.2024 H   0  0  0  0  0  0  0  0  0  0  0  0
   -7.9628   -2.2841    0.6278 H   0  0  0  0  0  0  0  0  0  0  0  0
    1.0301   -0.5446   -0.8235 H   0  0  0  0  0  0  0  0  0  0  0  0
    1.4483   -0.0860   -2.5171 H   0  0  0  0  0  0  0  0  0  0  0  0
    0.2129    0.8172   -1.6909 H   0  0  0  0  0  0  0  0  0  0  0  0
    1.1596   -2.8862   -4.8247 H   0  0  0  0  0  0  0  0  0  0  0  0
    1.6657   -1.4227   -4.0181 H   0  0  0  0  0  0  0  0  0  0  0  0
    2.6898   -3.9603   -3.5006 H   0  0  0  0  0  0  0  0  0  0  0  0
    2.9041   -2.5214   -2.4629 H   0  0  0  0  0  0  0  0  0  0  0  0
   -0.1255   -6.4718   -0.3482 H   0  0  0  0  0  0  0  0  0  0  0  0
    1.1422   -5.2261    1.7279 H   0  0  0  0  0  0  0  0  0  0  0  0
    1.0200   -3.4337    1.8504 H   0  0  0  0  0  0  0  0  0  0  0  0
   -0.9113   -5.5093    2.7918 H   0  0  0  0  0  0  0  0  0  0  0  0
   -0.7341   -3.7649    3.2710 H   0  0  0  0  0  0  0  0  0  0  0  0
   -1.7406   -2.9329   -0.1732 H   0  0  0  0  0  0  0  0  0  0  0  0
   -2.0754   -4.6911   -0.4820 H   0  0  0  0  0  0  0  0  0  0  0  0
   -5.0901   -0.3527   -0.1232 H   0  0  0  0  0  0  0  0  0  0  0  0
   -5.4485   -2.5797    3.4065 H   0  0  0  0  0  0  0  0  0  0  0  0
  1  2  4  0
  2  3  4  0
  7  8  2  0
  8  9  4  0
  9 10  4  0
  1 11  4  0
 10 11  4  0
  6 12  1  0
  1 12  1  0
  6 13  1  0
 12 14  1  0
 14 15  1  0
  8 16  4  0
 16 17  4  0
 17 18  1  0
  3 19  4  0
 17 19  4  0
 10 19  4  0
 16 20  1  0
 20 21  1  0
  4 21  1  0
  4 22  1  0
 22 23  2  0
 22 24  1  0
 25 24  1  0
  4 26  1  0
 25 26  1  6
 26 27  2  0
 25 28  1  0
 28 29  1  0
 29 30  1  0
 25 31  1  0
 30 31  1  0
 30 32  1  0
 32 33  2  0
 32 34  1  0
 34 35  4  0
 35 36  4  0
  5 36  4  0
 34 37  4  0
  5 37  4  0
  2 38  1  0
  3 39  1  0
  5 40  1  0
  6 41  1  0
  6 42  1  0
 11 43  1  0
 13 44  1  0
 13 45  1  0
 13 46  1  0
 14 47  1  0
 14 48  1  0
 15 49  1  0
 15 50  1  0
 15 51  1  0
 18 52  1  0
 18 53  1  0
 18 54  1  0
 20 55  1  0
 20 56  1  0
 21 57  1  0
 21 58  1  0
 24 59  1  0
 28 60  1  0
 28 61  1  0
 29 62  1  0
 29 63  1  0
 31 64  1  0
 31 65  1  0
 36 66  1  0
 37 67  1  0
M  CHG  2   5   1   9   1
M  END
