7KRU_ATP_A_607
     RDKit          3D

 47 49  0  0  0  0  0  0  0  0999 V2000
   51.1292   46.0819  195.4326 P   0  0  2  0  0  5  0  0  0  0  0  0
   52.4624   45.9264  196.1279 O   0  0  0  0  0  0  0  0  0  0  0  0
   51.3753   46.2362  193.7638 O   0  0  0  0  0  0  0  0  0  0  0  0
   50.3829   47.4883  196.0046 O   0  0  0  0  0  0  0  0  0  0  0  0
   50.9512   43.7086  196.8330 P   0  0  1  0  0  5  0  0  0  0  0  0
   52.2281   43.2095  196.1937 O   0  0  0  0  0  0  0  0  0  0  0  0
   51.3336   44.5205  198.2671 O   0  0  0  0  0  0  0  0  0  0  0  0
   50.1178   44.7560  195.7759 O   0  0  0  0  0  0  0  0  0  0  0  0
   48.5970   42.9574  198.0346 P   0  0  2  0  0  5  0  0  0  0  0  0
   48.3964   44.4091  197.6578 O   0  0  0  0  0  0  0  0  0  0  0  0
   48.7936   42.8600  199.7149 O   0  0  0  0  0  0  0  0  0  0  0  0
   49.9800   42.3699  197.2344 O   0  0  0  0  0  0  0  0  0  0  0  0
   47.2283   42.0449  197.5769 O   0  0  0  0  0  0  0  0  0  0  0  0
   47.2825   41.8282  196.1857 C   0  0  2  0  0  0  0  0  0  0  0  0
   46.1366   40.8994  195.7660 C   0  0  1  0  0  0  0  0  0  0  0  0
   46.1642   40.7429  194.3590 O   0  0  0  0  0  0  0  0  0  0  0  0
   46.2476   39.5206  196.4377 C   0  0  1  0  0  0  0  0  0  0  0  0
   44.9764   39.0682  196.8294 O   0  0  0  0  0  0  0  0  0  0  0  0
   46.8053   38.6673  195.3261 C   0  0  1  0  0  0  0  0  0  0  0  0
   46.4277   37.3135  195.4117 O   0  0  0  0  0  0  0  0  0  0  0  0
   46.2876   39.3672  194.0755 C   0  0  2  0  0  0  0  0  0  0  0  0
   47.1981   39.1638  192.9475 N   0  0  0  0  0  0  0  0  0  0  0  0
   47.0986   38.2254  191.9706 C   0  0  0  0  0  0  0  0  0  0  0  0
   48.1378   38.2496  191.0903 N   0  0  0  0  0  0  0  0  0  0  0  0
   48.9085   39.2467  191.5674 C   0  0  0  0  0  0  0  0  0  0  0  0
   50.1211   39.7336  191.0918 C   0  0  0  0  0  0  0  0  0  0  0  0
   50.7434   39.1935  189.9259 N   0  0  0  0  0  0  0  0  0  0  0  0
   50.7080   40.7577  191.7826 N   0  0  0  0  0  0  0  0  0  0  0  0
   50.1239   41.2879  192.9050 C   0  0  0  0  0  0  0  0  0  0  0  0
   48.9317   40.8000  193.3633 N   0  0  0  0  0  0  0  0  0  0  0  0
   48.3531   39.7868  192.6755 C   0  0  0  0  0  0  0  0  0  0  0  0
   50.6887   45.6512  193.3523 H   0  0  0  0  0  0  0  0  0  0  0  0
   50.0873   47.2610  196.9221 H   0  0  0  0  0  0  0  0  0  0  0  0
   51.7324   43.8258  198.8495 H   0  0  0  0  0  0  0  0  0  0  0  0
   49.2183   41.9796  199.8694 H   0  0  0  0  0  0  0  0  0  0  0  0
   48.2461   41.3612  195.8761 H   0  0  0  0  0  0  0  0  0  0  0  0
   47.1598   42.7976  195.6516 H   0  0  0  0  0  0  0  0  0  0  0  0
   45.1774   41.3887  196.0428 H   0  0  0  0  0  0  0  0  0  0  0  0
   46.9403   39.5078  197.3109 H   0  0  0  0  0  0  0  0  0  0  0  0
   44.8675   39.3260  197.7822 H   0  0  0  0  0  0  0  0  0  0  0  0
   47.9147   38.7250  195.3590 H   0  0  0  0  0  0  0  0  0  0  0  0
   45.4527   37.2390  195.2385 H   0  0  0  0  0  0  0  0  0  0  0  0
   45.2774   38.9881  193.8043 H   0  0  0  0  0  0  0  0  0  0  0  0
   46.2778   37.5211  191.8973 H   0  0  0  0  0  0  0  0  0  0  0  0
   51.7823   39.2283  189.8219 H   0  0  0  0  0  0  0  0  0  0  0  0
   50.1743   38.7627  189.1630 H   0  0  0  0  0  0  0  0  0  0  0  0
   50.6059   42.1037  193.4269 H   0  0  0  0  0  0  0  0  0  0  0  0
  1  2  2  0
  1  3  1  6
  1  4  1  0
  5  6  2  0
  5  7  1  1
  1  8  1  0
  5  8  1  0
  9 10  2  0
  9 11  1  1
  5 12  1  0
  9 12  1  0
  9 13  1  0
 13 14  1  0
 15 14  1  0
 15 16  1  0
 15 17  1  0
 17 18  1  0
 17 19  1  0
 19 20  1  0
 16 21  1  0
 19 21  1  0
 21 22  1  0
 22 23  1  0
 23 24  2  0
 24 25  1  0
 25 26  2  0
 26 27  1  0
 26 28  1  0
 28 29  2  0
 29 30  1  0
 22 31  1  0
 25 31  1  0
 30 31  2  0
  3 32  1  0
  4 33  1  0
  7 34  1  0
 11 35  1  0
 14 36  1  1
 14 37  1  0
 15 38  1  6
 17 39  1  1
 18 40  1  0
 19 41  1  6
 20 42  1  0
 21 43  1  6
 23 44  1  0
 27 45  1  0
 27 46  1  0
 29 47  1  0
M  END
