1N2V_BDI_A_900
     RDKit          3D

 27 28  0  0  0  0  0  0  0  0999 V2000
    0.6350    2.9151    1.4368 N   0  0  0  0  0  0  0  0  0  0  0  0
    1.2446    2.3713    0.3485 C   0  0  0  0  0  0  0  0  0  0  0  0
    2.3730    3.0430   -0.3732 C   0  0  0  0  0  0  0  0  0  0  0  0
    3.0264    2.1132   -1.4078 C   0  0  0  0  0  0  0  0  0  0  0  0
    3.6027    2.8413   -2.6357 C   0  0  0  0  0  0  0  0  0  0  0  0
    4.4565    1.9324   -3.5189 C   0  0  0  0  0  0  0  0  0  0  0  0
    0.7755    1.1428    0.0148 N   0  0  0  0  0  4  0  0  0  0  0  0
   -0.1750    0.9112    0.9283 C   0  0  0  0  0  0  0  0  0  0  0  0
   -0.9960   -0.1970    1.0872 C   0  0  0  0  0  0  0  0  0  0  0  0
   -1.8903   -0.1820    2.1226 N   0  0  0  0  0  4  0  0  0  0  0  0
   -1.9746    0.8655    2.9622 N   0  0  0  0  0  4  0  0  0  0  0  0
   -1.1698    1.9633    2.8192 C   0  0  0  0  0  0  0  0  0  0  0  0
   -1.2559    2.9372    3.6139 O   0  0  0  0  0  0  0  0  0  0  0  0
   -0.2580    1.9664    1.7724 C   0  0  0  0  0  0  0  0  0  0  0  0
   -0.9232   -1.1842    0.3078 O   0  0  0  0  0  0  0  0  0  0  0  0
    3.1275    3.4074    0.3551 H   0  0  0  0  0  0  0  0  0  0  0  0
    1.9727    3.9358   -0.8997 H   0  0  0  0  0  0  0  0  0  0  0  0
    3.8467    1.5470   -0.9148 H   0  0  0  0  0  0  0  0  0  0  0  0
    2.2742    1.3672   -1.7450 H   0  0  0  0  0  0  0  0  0  0  0  0
    2.7860    3.2892   -3.2413 H   0  0  0  0  0  0  0  0  0  0  0  0
    4.2418    3.6762   -2.2755 H   0  0  0  0  0  0  0  0  0  0  0  0
    5.2378    1.4244   -2.9146 H   0  0  0  0  0  0  0  0  0  0  0  0
    3.8258    1.1728   -4.0254 H   0  0  0  0  0  0  0  0  0  0  0  0
    4.9555    2.5420   -4.3014 H   0  0  0  0  0  0  0  0  0  0  0  0
    1.0898    0.5212   -0.7635 H   0  0  0  0  0  0  0  0  0  0  0  0
   -2.5218   -1.0024    2.2660 H   0  0  0  0  0  0  0  0  0  0  0  0
   -2.6701    0.8386    3.7421 H   0  0  0  0  0  0  0  0  0  0  0  0
  1  2  4  0
  2  3  1  0
  3  4  1  0
  4  5  1  0
  5  6  1  0
  2  7  4  0
  7  8  4  0
  8  9  4  0
  9 10  4  0
 10 11  4  0
 11 12  4  0
 12 13  2  0
  1 14  4  0
  8 14  4  0
 12 14  4  0
  9 15  2  0
  3 16  1  0
  3 17  1  0
  4 18  1  0
  4 19  1  0
  5 20  1  0
  5 21  1  0
  6 22  1  0
  6 23  1  0
  6 24  1  0
  7 25  1  0
 10 26  1  0
 11 27  1  0
M  CHG  3   7   1  10   1  11   1
M  END
