6VS3_R6V_B_1201
     RDKit          3D

 68 73  0  0  0  0  0  0  0  0999 V2000
   44.3354  -27.5782   -1.4030 C   0  0  0  0  0  0  0  0  0  0  0  0
   45.4319  -29.4857   -2.8452 C   0  0  0  0  0  0  0  0  0  0  0  0
   46.9175  -29.0635   -4.5658 C   0  0  0  0  0  0  0  0  0  0  0  0
   47.3256  -28.7139   -7.8888 C   0  0  0  0  0  0  0  0  0  0  0  0
   47.0475  -28.2656   -9.2049 C   0  0  0  0  0  0  0  0  0  0  0  0
   46.7729  -26.9055   -9.4251 C   0  0  0  0  0  0  0  0  0  0  0  0
   47.6414  -26.8126  -11.5344 C   0  0  0  0  0  0  0  0  0  0  0  0
   46.1982  -24.8127  -10.9325 C   0  0  0  0  0  0  0  0  0  0  0  0
   44.1650  -24.2614    1.0893 C   0  0  0  0  0  0  0  0  0  0  0  0
   44.1207  -25.2914   -0.0489 C   0  0  0  0  0  0  0  0  0  0  0  0
   42.9821  -26.3048    0.2335 C   0  0  2  0  0  0  0  0  0  0  0  0
   42.8151  -26.5561    1.7601 C   0  0  2  0  0  0  0  0  0  0  0  0
   44.0359  -26.8835    2.3442 C   0  0  0  0  0  0  0  0  0  0  0  0
   44.0133  -28.4758    2.5526 C   0  0  0  0  0  0  0  0  0  0  0  0
   42.4618  -28.8954    2.5200 C   0  0  0  0  0  0  0  0  0  0  0  0
   41.7783  -27.8523    1.9108 C   0  0  0  0  0  0  0  0  0  0  0  0
   43.4320  -29.6111   -1.1319 C   0  0  0  0  0  0  0  0  0  0  0  0
   44.4110  -28.8985   -1.8640 C   0  0  0  0  0  0  0  0  0  0  0  0
   47.3312  -27.7967   -6.8198 C   0  0  0  0  0  0  0  0  0  0  0  0
   46.4530  -26.2884  -10.8074 C   0  0  2  0  0  0  0  0  0  0  0  0
   47.8426  -26.2245  -12.9334 C   0  0  0  0  0  0  0  0  0  0  0  0
   46.6852  -24.1937  -12.2348 C   0  0  0  0  0  0  0  0  0  0  0  0
   46.7825  -25.9922   -8.3262 C   0  0  0  0  0  0  0  0  0  0  0  0
   47.0526  -26.4257   -7.0510 C   0  0  0  0  0  0  0  0  0  0  0  0
   46.5217  -31.2998   -3.9978 C   0  0  0  0  0  0  0  0  0  0  0  0
   45.6390  -30.9019   -3.0282 C   0  0  0  0  0  0  0  0  0  0  0  0
   45.1677  -32.1098   -2.4285 C   0  0  0  0  0  0  0  0  0  0  0  0
   45.8118  -33.1803   -3.0679 C   0  0  0  0  0  0  0  0  0  0  0  0
   44.0700  -23.5482    1.9771 N   0  0  0  0  0  0  0  0  0  0  0  0
   43.3673  -27.5355   -0.5055 N   0  0  0  0  0  4  0  0  0  0  0  0
   42.8267  -28.7553   -0.3111 N   0  0  0  0  0  0  0  0  0  0  0  0
   46.0555  -28.6235   -3.6578 N   0  0  0  0  0  0  0  0  0  0  0  0
   47.6193  -28.1314   -5.4313 N   0  0  0  0  0  0  0  0  0  0  0  0
   46.8119  -25.2333  -13.2936 N   0  0  0  0  0  0  0  0  0  0  0  0
   47.1658  -30.3415   -4.7597 N   0  0  0  0  0  0  0  0  0  0  0  0
   46.6240  -32.6831   -3.9902 N   0  0  0  0  0  4  0  0  0  0  0  0
   44.9249  -26.7877   -1.7073 H   0  0  0  0  0  0  0  0  0  0  0  0
   47.5238  -29.7116   -7.7143 H   0  0  0  0  0  0  0  0  0  0  0  0
   47.0469  -28.9316   -9.9931 H   0  0  0  0  0  0  0  0  0  0  0  0
   47.5332  -27.8728  -11.6304 H   0  0  0  0  0  0  0  0  0  0  0  0
   48.4983  -26.5286  -10.9598 H   0  0  0  0  0  0  0  0  0  0  0  0
   46.6932  -24.3187  -10.1227 H   0  0  0  0  0  0  0  0  0  0  0  0
   45.1359  -24.6859  -10.9151 H   0  0  0  0  0  0  0  0  0  0  0  0
   45.0562  -25.8081   -0.1021 H   0  0  0  0  0  0  0  0  0  0  0  0
   43.9411  -24.7950   -0.9796 H   0  0  0  0  0  0  0  0  0  0  0  0
   42.0286  -25.9436   -0.0911 H   0  0  0  0  0  0  0  0  0  0  0  0
   42.4419  -25.6787    2.2455 H   0  0  0  0  0  0  0  0  0  0  0  0
   44.1427  -26.3867    3.2859 H   0  0  0  0  0  0  0  0  0  0  0  0
   44.8582  -26.5799    1.7306 H   0  0  0  0  0  0  0  0  0  0  0  0
   44.4505  -28.7353    3.4940 H   0  0  0  0  0  0  0  0  0  0  0  0
   44.5757  -28.9817    1.7958 H   0  0  0  0  0  0  0  0  0  0  0  0
   42.0987  -29.0421    3.5158 H   0  0  0  0  0  0  0  0  0  0  0  0
   42.3223  -29.8111    1.9845 H   0  0  0  0  0  0  0  0  0  0  0  0
   40.9368  -27.5735    2.5101 H   0  0  0  0  0  0  0  0  0  0  0  0
   41.4298  -28.1568    0.9460 H   0  0  0  0  0  0  0  0  0  0  0  0
   43.2236  -30.6181   -1.2190 H   0  0  0  0  0  0  0  0  0  0  0  0
   45.4862  -26.5557  -11.1797 H   0  0  0  0  0  0  0  0  0  0  0  0
   47.8132  -27.0219  -13.6463 H   0  0  0  0  0  0  0  0  0  0  0  0
   48.7869  -25.7213  -12.9372 H   0  0  0  0  0  0  0  0  0  0  0  0
   47.6399  -23.7387  -12.0726 H   0  0  0  0  0  0  0  0  0  0  0  0
   45.9753  -23.4599  -12.5548 H   0  0  0  0  0  0  0  0  0  0  0  0
   46.5837  -24.9934   -8.4928 H   0  0  0  0  0  0  0  0  0  0  0  0
   47.0527  -25.7568   -6.2651 H   0  0  0  0  0  0  0  0  0  0  0  0
   44.4787  -32.1821   -1.6637 H   0  0  0  0  0  0  0  0  0  0  0  0
   45.6766  -34.1814   -2.8567 H   0  0  0  0  0  0  0  0  0  0  0  0
   48.3878  -27.6665   -5.0281 H   0  0  0  0  0  0  0  0  0  0  0  0
   47.0713  -24.7855  -14.1726 H   0  0  0  0  0  0  0  0  0  0  0  0
   47.2088  -33.2133   -4.5784 H   0  0  0  0  0  0  0  0  0  0  0  0
  4  5  4  0
  5  6  4  0
  9 10  1  0
 11 10  1  0
 11 12  1  0
 12 13  1  0
 13 14  1  0
 14 15  1  0
 15 16  1  0
 12 16  1  0
 17 18  4  0
  1 18  4  0
  2 18  1  0
  4 19  4  0
  8 20  1  0
  6 20  1  0
  7 20  1  0
  7 21  1  0
  8 22  1  0
  6 23  4  0
 23 24  4  0
 19 24  4  0
  2 26  4  0
 25 26  4  0
 26 27  4  0
 27 28  4  0
  9 29  3  0
 11 30  1  0
  1 30  4  0
 30 31  4  0
 17 31  4  0
  2 32  4  0
  3 32  4  0
 19 33  1  0
  3 33  1  0
 22 34  1  0
 21 34  1  0
  3 35  4  0
 25 35  4  0
 28 36  4  0
 25 36  4  0
  1 37  1  0
  4 38  1  0
  5 39  1  0
  7 40  1  0
  7 41  1  0
  8 42  1  0
  8 43  1  0
 10 44  1  0
 10 45  1  0
 11 46  1  6
 12 47  1  1
 13 48  1  0
 13 49  1  0
 14 50  1  0
 14 51  1  0
 15 52  1  0
 15 53  1  0
 16 54  1  0
 16 55  1  0
 17 56  1  0
 20 57  1  6
 21 58  1  0
 21 59  1  0
 22 60  1  0
 22 61  1  0
 23 62  1  0
 24 63  1  0
 27 64  1  0
 28 65  1  0
 33 66  1  0
 34 67  1  0
 36 68  1  0
M  CHG  2  30   1  36   1
M  END
