7VWF_K55_A_502
     RDKit          3D

 33 34  0  0  0  0  0  0  0  0999 V2000
   24.3407  -35.2161   16.9814 O   0  0  0  0  0  0  0  0  0  0  0  0
   26.2798  -34.9087   18.0572 O   0  0  0  0  0  0  0  0  0  0  0  0
   25.1910  -34.3794   17.7186 C   0  0  0  0  0  0  0  0  0  0  0  0
   24.7823  -33.0037   18.0362 C   0  0  1  0  0  0  0  0  0  0  0  0
   24.7558  -32.8099   19.5408 C   0  0  0  0  0  0  0  0  0  0  0  0
   23.7851  -33.7583   20.1699 C   0  0  0  0  0  0  0  0  0  0  0  0
   25.6121  -31.9733   17.3754 C   0  0  0  0  0  0  0  0  0  0  0  0
   25.7821  -32.1418   15.9035 C   0  0  0  0  0  0  0  0  0  0  0  0
   25.8169  -33.4347   15.4377 C   0  0  0  0  0  0  0  0  0  0  0  0
   25.9539  -33.7457   14.0663 C   0  0  0  0  0  0  0  0  0  0  0  0
   26.0557  -32.7101   13.1748 C   0  0  0  0  0  0  0  0  0  0  0  0
   26.0169  -31.3966   13.6660 C   0  0  0  0  0  0  0  0  0  0  0  0
   25.8812  -31.1291   15.0121 C   0  0  0  0  0  0  0  0  0  0  0  0
   26.1954  -32.9317   11.8472 O   0  0  0  0  0  0  0  0  0  0  0  0
   25.8410  -32.3092   10.7134 C   0  0  0  0  0  0  0  0  0  0  0  0
   25.8559  -32.8071    9.3408 C   0  0  0  0  0  0  0  0  0  0  0  0
   25.5659  -31.9427    8.1714 C   0  0  0  0  0  0  0  0  0  0  0  0
   24.2979  -31.1572    8.2580 C   0  0  0  0  0  0  0  0  0  0  0  0
   25.9325  -35.1778   13.7605 C   0  0  0  0  0  0  0  0  0  0  0  0
   24.6517  -35.6663   13.3999 N   0  0  0  0  0  0  0  0  0  0  0  0
   23.7437  -36.4672   14.0895 C   0  0  0  0  0  0  0  0  0  0  0  0
   24.1764  -37.0683   15.1121 O   0  0  0  0  0  0  0  0  0  0  0  0
   22.3474  -36.6954   13.7566 C   0  0  0  0  0  0  0  0  0  0  0  0
   21.6770  -36.1053   12.7164 C   0  0  0  0  0  0  0  0  0  0  0  0
   20.3456  -36.4282   12.4481 C   0  0  0  0  0  0  0  0  0  0  0  0
   19.6384  -37.3411   13.1973 C   0  0  0  0  0  0  0  0  0  0  0  0
   20.3133  -37.9422   14.2546 C   0  0  0  0  0  0  0  0  0  0  0  0
   21.6218  -37.6179   14.5100 C   0  0  0  0  0  0  0  0  0  0  0  0
   18.2289  -37.6571   12.8725 C   0  0  2  0  0  0  0  0  0  0  0  0
   22.2431  -35.1913   11.9165 F   0  0  0  0  0  0  0  0  0  0  0  0
   17.5712  -36.5932   12.2676 F   0  0  0  0  0  0  0  0  0  0  0  0
   17.5101  -37.9505   14.0131 F   0  0  0  0  0  0  0  0  0  0  0  0
   18.1229  -38.7348   12.0290 F   0  0  0  0  0  0  0  0  0  0  0  0
  1  3  1  0
  2  3  2  0
  3  4  1  0
  4  5  1  1
  5  6  1  0
  4  7  1  0
  7  8  1  0
  8  9  2  0
  9 10  1  0
 10 11  2  0
 11 12  1  0
  8 13  1  0
 12 13  2  0
 11 14  1  0
 14 15  1  0
 15 16  1  0
 16 17  1  0
 17 18  1  0
 10 19  1  0
 19 20  1  0
 20 21  1  0
 21 22  2  0
 21 23  1  0
 23 24  2  0
 24 25  1  0
 25 26  2  0
 26 27  1  0
 23 28  1  0
 27 28  2  0
 26 29  1  0
 24 30  1  0
 29 31  1  6
 29 32  1  0
 29 33  1  0
M  END
$$$$
