7OMJ_GCP_A_401
     RDKit          3D

 32 34  0  0  0  0  0  0  0  0999 V2000
    7.7863  -12.2867   27.4907 P   0  0  2  0  0  0  0  0  0  0  0  0
    7.2727  -11.8455   28.8249 O   0  0  0  0  0  0  0  0  0  0  0  0
    7.2742  -13.8612   27.1616 O   0  0  0  0  0  0  0  0  0  0  0  0
    9.4748  -12.2112   27.4570 O   0  0  0  0  0  0  0  0  0  0  0  0
    7.1297  -11.1900   26.2234 C   0  0  0  0  0  0  0  0  0  0  0  0
    5.6480  -10.3211   26.8442 P   0  0  1  0  0  0  0  0  0  0  0  0
    4.7336  -11.3206   27.5189 O   0  0  0  0  0  0  0  0  0  0  0  0
    6.0881   -9.1276   27.9636 O   0  0  0  0  0  0  0  0  0  0  0  0
    4.9243   -9.5542   25.5347 O   0  0  0  0  0  0  0  0  0  0  0  0
    5.0250  -10.5190   24.1256 P   0  0  1  0  0  0  0  0  0  0  0  0
    5.2095   -9.5139   22.9857 O   0  0  0  0  0  0  0  0  0  0  0  0
    6.3598  -11.5115   24.1220 O   0  0  0  0  0  0  0  0  0  0  0  0
    3.5589  -11.2715   23.9402 O   0  0  0  0  0  0  0  0  0  0  0  0
    3.4952  -12.1991   22.9072 C   0  0  0  0  0  0  0  0  0  0  0  0
    3.0801  -11.5190   21.6443 C   0  0  1  0  0  0  0  0  0  0  0  0
    3.5225  -10.1769   21.6260 O   0  0  0  0  0  0  0  0  0  0  0  0
    3.8245  -12.0631   20.4466 C   0  0  1  0  0  0  0  0  0  0  0  0
    3.2890  -13.2391   19.9529 O   0  0  0  0  0  0  0  0  0  0  0  0
    3.6645  -10.9175   19.4472 C   0  0  1  0  0  0  0  0  0  0  0  0
    2.7465  -11.2365   18.4656 O   0  0  0  0  0  0  0  0  0  0  0  0
    3.1055   -9.8121   20.3457 C   0  0  2  0  0  0  0  0  0  0  0  0
    3.6693   -8.5642   19.9193 N   0  0  0  0  0  0  0  0  0  0  0  0
    4.8198   -8.0611   20.4029 C   0  0  0  0  0  0  0  0  0  0  0  0
    5.1013   -6.8941   19.8297 N   0  0  0  0  0  0  0  0  0  0  0  0
    4.1309   -6.6184   18.9581 C   0  0  0  0  0  0  0  0  0  0  0  0
    3.8761   -5.5719   18.0841 C   0  0  0  0  0  0  0  0  0  0  0  0
    4.7273   -4.6407   18.0715 O   0  0  0  0  0  0  0  0  0  0  0  0
    2.7793   -5.5741   17.3068 N   0  0  0  0  0  0  0  0  0  0  0  0
    1.9393   -6.6241   17.4060 C   0  0  0  0  0  0  0  0  0  0  0  0
    0.7777   -6.6115   16.5729 N   0  0  0  0  0  0  0  0  0  0  0  0
    2.1470   -7.6584   18.2386 N   0  0  0  0  0  0  0  0  0  0  0  0
    3.2285   -7.6654   19.0110 C   0  0  0  0  0  0  0  0  0  0  0  0
  1  2  2  0
  1  3  1  6
  1  4  1  0
  1  5  1  0
  5  6  1  0
  6  7  2  0
  6  8  1  1
  6  9  1  0
  9 10  1  0
 10 11  2  0
 10 12  1  1
 10 13  1  0
 13 14  1  0
 15 14  1  1
 15 16  1  0
 15 17  1  0
 17 18  1  6
 17 19  1  0
 19 20  1  6
 16 21  1  0
 19 21  1  0
 21 22  1  6
 22 23  1  0
 23 24  2  0
 24 25  1  0
 25 26  1  0
 26 27  2  0
 26 28  1  0
 28 29  1  0
 29 30  1  0
 29 31  2  0
 22 32  1  0
 25 32  2  0
 31 32  1  0
M  END
$$$$
