7R7R_AWJ_A_1501
     RDKit          3D

 58 61  0  0  0  0  0  0  0  0999 V2000
   29.1316   45.3440    9.6170 C   0  0  0  0  0  0  0  0  0  0  0  0
   28.2770   45.4830   10.7241 C   0  0  0  0  0  0  0  0  0  0  0  0
   27.5486   46.6206   10.8813 N   0  0  0  0  0  0  0  0  0  0  0  0
   27.6100   47.6485    9.9960 C   0  0  0  0  0  0  0  0  0  0  0  0
   28.4406   47.5617    8.8719 C   0  0  0  0  0  0  0  0  0  0  0  0
   29.2062   46.4022    8.6916 C   0  0  0  0  0  0  0  0  0  0  0  0
   29.8889   44.1658    9.4846 O   0  0  0  0  0  0  0  0  0  0  0  0
   28.1663   44.4441   11.7002 N   0  0  0  0  0  0  0  0  0  0  0  0
   30.6721   43.7941    8.3466 C   0  0  1  0  0  0  0  0  0  0  0  0
   31.8309   42.9277    8.8008 C   0  0  0  0  0  0  0  0  0  0  0  0
   29.8047   43.0342    7.3380 C   0  0  2  0  0  0  0  0  0  0  0  0
   33.1657   43.4069    8.8144 C   0  0  0  0  0  0  0  0  0  0  0  0
   34.1908   42.5965    9.3196 C   0  0  0  0  0  0  0  0  0  0  0  0
   33.9156   41.3050    9.7713 C   0  0  0  0  0  0  0  0  0  0  0  0
   32.6110   40.8131    9.7301 C   0  0  0  0  0  0  0  0  0  0  0  0
   31.5745   41.6181    9.2521 C   0  0  0  0  0  0  0  0  0  0  0  0
   32.3477   39.5559   10.1647 F   0  0  0  0  0  0  0  0  0  0  0  0
   33.4987   44.7172    8.3437 N   0  0  0  0  0  0  0  0  0  0  0  0
   34.3626   45.5963    8.9956 N   0  0  0  0  0  0  0  0  0  0  0  0
   34.2479   46.8388    8.3055 C   0  0  0  0  0  0  0  0  0  0  0  0
   33.3799   46.7092    7.3024 C   0  0  0  0  0  0  0  0  0  0  0  0
   32.8748   45.3759    7.2833 N   0  0  0  0  0  0  0  0  0  0  0  0
   28.5741   48.6892    7.9252 C   0  0  0  0  0  0  0  0  0  0  0  0
   27.6529   49.7111    7.6571 C   0  0  0  0  0  0  0  0  0  0  0  0
   28.0764   50.6330    6.7488 N   0  0  0  0  0  0  0  0  0  0  0  0
   29.3067   50.3558    6.2581 C   0  0  0  0  0  0  0  0  0  0  0  0
   29.9288   48.9585    6.9630 S   0  0  0  0  0  0  0  0  0  0  0  0
   26.2989   49.8234    8.2858 C   0  0  2  0  0  0  0  0  0  0  0  0
   30.0379   51.2519    5.2772 C   0  0  1  0  0  0  0  0  0  0  0  0
   29.5551   51.0047    3.8241 C   0  0  1  0  0  0  0  0  0  0  0  0
   29.8113   52.6021    5.6110 O   0  0  0  0  0  0  0  0  0  0  0  0
   31.5492   50.9984    5.3959 C   0  0  2  0  0  0  0  0  0  0  0  0
   29.8082   52.1084    2.9923 O   0  0  0  0  0  0  0  0  0  0  0  0
   27.0365   48.5429   10.1925 H   0  0  0  0  0  0  0  0  0  0  0  0
   29.8510   46.3387    7.8274 H   0  0  0  0  0  0  0  0  0  0  0  0
   27.5464   44.5723   12.5310 H   0  0  0  0  0  0  0  0  0  0  0  0
   28.7015   43.5513   11.6135 H   0  0  0  0  0  0  0  0  0  0  0  0
   31.0680   44.7120    7.8716 H   0  0  0  0  0  0  0  0  0  0  0  0
   29.7689   43.5753    6.3695 H   0  0  0  0  0  0  0  0  0  0  0  0
   28.7674   42.9349    7.7197 H   0  0  0  0  0  0  0  0  0  0  0  0
   30.2136   42.0163    7.1639 H   0  0  0  0  0  0  0  0  0  0  0  0
   35.2086   42.9655    9.3480 H   0  0  0  0  0  0  0  0  0  0  0  0
   34.7164   40.6838   10.1503 H   0  0  0  0  0  0  0  0  0  0  0  0
   30.5657   41.2241    9.2447 H   0  0  0  0  0  0  0  0  0  0  0  0
   34.9019   45.3946    9.8666 H   0  0  0  0  0  0  0  0  0  0  0  0
   34.7795   47.7463    8.5697 H   0  0  0  0  0  0  0  0  0  0  0  0
   33.0894   47.4917    6.6132 H   0  0  0  0  0  0  0  0  0  0  0  0
   32.1822   44.9615    6.6209 H   0  0  0  0  0  0  0  0  0  0  0  0
   25.7539   48.8585    8.2165 H   0  0  0  0  0  0  0  0  0  0  0  0
   25.7008   50.5949    7.7572 H   0  0  0  0  0  0  0  0  0  0  0  0
   26.4028   50.1223    9.3491 H   0  0  0  0  0  0  0  0  0  0  0  0
   30.0857   50.1232    3.4023 H   0  0  0  0  0  0  0  0  0  0  0  0
   28.4681   50.7554    3.8249 H   0  0  0  0  0  0  0  0  0  0  0  0
   29.0487   52.6375    6.2469 H   0  0  0  0  0  0  0  0  0  0  0  0
   32.1319   51.9274    5.2157 H   0  0  0  0  0  0  0  0  0  0  0  0
   31.8685   50.2388    4.6501 H   0  0  0  0  0  0  0  0  0  0  0  0
   31.7989   50.6152    6.4085 H   0  0  0  0  0  0  0  0  0  0  0  0
   29.1350   52.0832    2.2629 H   0  0  0  0  0  0  0  0  0  0  0  0
  1  2  2  0
  2  3  1  0
  3  4  2  0
  4  5  1  0
  1  6  1  0
  5  6  2  0
  1  7  1  0
  2  8  1  0
  7  9  1  0
  9 10  1  0
  9 11  1  0
 10 12  1  0
 12 13  2  0
 13 14  1  0
 14 15  2  0
 10 16  2  0
 15 16  1  0
 15 17  1  0
 12 18  1  0
 18 19  1  0
 19 20  1  0
 20 21  2  0
 18 22  1  0
 21 22  1  0
  5 23  1  0
 23 24  2  0
 24 25  1  0
 25 26  2  0
 23 27  1  0
 26 27  1  0
 24 28  1  0
 26 29  1  0
 29 30  1  0
 29 31  1  1
 29 32  1  0
 30 33  1  0
  4 34  1  0
  6 35  1  0
  8 36  1  0
  8 37  1  0
  9 38  1  6
 11 39  1  6
 11 40  1  0
 11 41  1  0
 13 42  1  0
 14 43  1  0
 16 44  1  0
 19 45  1  0
 20 46  1  0
 21 47  1  0
 22 48  1  0
 28 49  1  1
 28 50  1  0
 28 51  1  0
 30 52  1  6
 30 53  1  0
 31 54  1  0
 32 55  1  6
 32 56  1  0
 32 57  1  0
 33 58  1  0
M  END
