7PK0_BYC_A_402
     RDKit          3D

 56 59  0  0  0  0  0  0  0  0999 V2000
   -8.5088   23.8093   -5.3444 N   0  0  0  0  0  0  0  0  0  0  0  0
   -0.8516   25.9035  -11.8923 O   0  0  0  0  0  0  0  0  0  0  0  0
   -2.2922   25.4420  -11.9258 P   0  0  2  0  0  5  0  0  0  0  0  0
  -13.5776   28.2936  -19.3183 C   0  0  0  0  0  0  0  0  0  0  0  0
   -4.3040   22.6064   -8.1929 C   0  0  1  0  0  0  0  0  0  0  0  0
  -13.1910   26.8627  -20.2255 S   0  0  0  0  0  0  0  0  0  0  0  0
   -7.5098   22.9275   -5.0501 C   0  0  0  0  0  0  0  0  0  0  0  0
   -2.5414   24.3906  -13.2257 O   0  0  0  0  0  0  0  0  0  0  0  0
   -3.7155   27.4412  -10.5690 P   0  0  1  0  0  5  0  0  0  0  0  0
  -14.8108   29.0416  -19.7085 C   0  0  0  0  0  0  0  0  0  0  0  0
   -4.3132   21.7063   -9.4169 C   0  0  2  0  0  0  0  0  0  0  0  0
   -5.0979   20.5761   -9.2109 O   0  0  0  0  0  0  0  0  0  0  0  0
  -11.6620   26.0153  -19.8674 C   0  0  0  0  0  0  0  0  0  0  0  0
   -6.4865   22.7355   -5.9072 N   0  0  0  0  0  0  0  0  0  0  0  0
   -3.2717   26.8106  -12.0615 O   0  0  0  0  0  0  0  0  0  0  0  0
  -15.0726   30.2401  -19.1123 C   0  0  0  0  0  0  0  0  0  0  0  0
   -2.8391   21.3600   -9.4945 C   0  0  2  0  0  0  0  0  0  0  0  0
   -2.6121   20.3999   -8.5029 O   0  0  0  0  0  0  0  0  0  0  0  0
   -2.3054   18.8705   -9.0965 P   0  0  1  0  0  5  0  0  0  0  0  0
  -11.4954   25.7124  -18.4097 C   0  0  0  0  0  0  0  0  0  0  0  0
   -6.4210   23.4044   -7.0716 C   0  0  0  0  0  0  0  0  0  0  0  0
   -4.0156   26.2278   -9.4299 O   0  0  0  0  0  0  0  0  0  0  0  0
  -16.2242   30.9472  -19.4597 C   0  0  0  0  0  0  0  0  0  0  0  0
   -2.2404   22.7025   -9.0904 C   0  0  2  0  0  0  0  0  0  0  0  0
   -3.2037   23.4168   -8.4361 O   0  0  0  0  0  0  0  0  0  0  0  0
  -11.5305   26.8412  -17.5339 N   0  0  0  0  0  0  0  0  0  0  0  0
  -12.9554   28.8003  -18.3629 O   0  0  0  0  0  0  0  0  0  0  0  0
   -2.5623   28.2724  -10.0498 O   0  0  0  0  0  0  0  0  0  0  0  0
  -17.1206   30.4700  -20.3988 C   0  0  0  0  0  0  0  0  0  0  0  0
   -1.9173   23.4364  -10.3888 C   0  0  0  0  0  0  0  0  0  0  0  0
   -2.6823   24.5838  -10.5238 O   0  0  0  0  0  0  0  0  0  0  0  0
   -7.4191   24.2920   -7.3761 C   0  0  0  0  0  0  0  0  0  0  0  0
  -11.4231   26.5701  -16.1213 C   0  0  0  0  0  0  0  0  0  0  0  0
  -11.8400   25.4862  -15.6217 O   0  0  0  0  0  0  0  0  0  0  0  0
   -8.4879   24.5116   -6.5121 C   0  0  0  0  0  0  0  0  0  0  0  0
   -9.5239   25.4371   -6.8351 N   0  0  0  0  0  0  0  0  0  0  0  0
   -5.0640   28.4572  -10.6982 O   0  0  0  0  0  0  0  0  0  0  0  0
  -16.8136   29.2430  -20.9822 C   0  0  0  0  0  0  0  0  0  0  0  0
  -10.8219   27.5437  -15.1765 C   0  0  0  0  0  0  0  0  0  0  0  0
   -7.1065   24.8104   -8.5769 N   0  0  0  0  0  0  0  0  0  0  0  0
   -1.5987   17.9425   -7.8496 O   0  0  0  0  0  0  0  0  0  0  0  0
  -15.6842   28.5597  -20.6348 C   0  0  0  0  0  0  0  0  0  0  0  0
  -11.2774   27.1766  -13.7823 C   0  0  0  0  0  0  0  0  0  0  0  0
   -5.9546   24.2512   -8.9824 C   0  0  0  0  0  0  0  0  0  0  0  0
   -3.5408   18.1498   -9.5439 O   0  0  0  0  0  0  0  0  0  0  0  0
  -10.7319   28.1714  -12.8488 N   0  0  0  0  0  0  0  0  0  0  0  0
   -5.5102   23.3734   -8.0614 N   0  0  0  0  0  0  0  0  0  0  0  0
   -1.1360   18.9044  -10.3421 O   0  0  0  0  0  0  0  0  0  0  0  0
   -9.3762   28.5110  -13.0176 C   0  0  0  0  0  0  0  0  0  0  0  0
   -9.1307   29.5788  -13.6558 O   0  0  0  0  0  0  0  0  0  0  0  0
   -8.2193   27.7488  -12.5232 C   0  0  2  0  0  0  0  0  0  0  0  0
   -8.6754   26.7261  -11.6568 O   0  0  0  0  0  0  0  0  0  0  0  0
   -7.2391   28.6127  -11.7280 C   0  0  1  0  0  0  0  0  0  0  0  0
   -6.1490   27.7052  -11.1343 C   0  0  0  0  0  0  0  0  0  0  0  0
   -6.5649   29.6549  -12.5818 C   0  0  0  0  0  0  0  0  0  0  0  0
   -7.9533   29.2952  -10.5807 C   0  0  0  0  0  0  0  0  0  0  0  0
  2  3  2  0
  4  6  1  0
  1  7  2  0
  3  8  1  6
  4 10  1  0
  5 11  1  0
 11 12  1  1
 13  6  1  1
  7 14  1  0
  3 15  1  0
  9 15  1  0
 10 16  2  0
 11 17  1  0
 17 18  1  1
 18 19  1  0
 13 20  1  0
 14 21  2  0
  9 22  1  1
 16 23  1  0
 17 24  1  0
  5 25  1  0
 24 25  1  1
 20 26  1  1
  4 27  2  0
  9 28  2  0
 23 29  2  0
 24 30  1  0
  3 31  1  0
 30 31  1  1
 21 32  1  0
 26 33  1  0
 33 34  2  0
  1 35  1  0
 32 35  2  0
 35 36  1  0
  9 37  1  0
 29 38  1  0
 39 33  1  6
 32 40  1  0
 19 41  1  1
 10 42  1  0
 38 42  2  0
 39 43  1  0
 40 44  2  0
 19 45  2  0
 43 46  1  6
  5 47  1  6
 21 47  1  0
 44 47  1  0
 19 48  1  0
 46 49  1  0
 49 50  2  0
 49 51  1  0
 51 52  1  1
 51 53  1  0
 54 37  1  6
 53 54  1  0
 53 55  1  6
 56 53  1  6
M  END
$$$$
