1LRH_NLA_D_8190
     RDKit          3D

 24 25  0  0  0  0  0  0  0  0999 V2000
   36.2509   52.1851   57.5948 C   0  0  0  0  0  0  0  0  0  0  0  0
   37.0809   51.6639   56.5629 C   0  0  0  0  0  0  0  0  0  0  0  0
   36.4832   51.0318   55.4576 C   0  0  0  0  0  0  0  0  0  0  0  0
   35.0969   50.9334   55.3514 C   0  0  0  0  0  0  0  0  0  0  0  0
   34.2767   51.4552   56.3482 C   0  0  0  0  0  0  0  0  0  0  0  0
   34.8379   52.0777   57.4710 C   0  0  0  0  0  0  0  0  0  0  0  0
   34.0019   52.5907   58.4755 C   0  0  0  0  0  0  0  0  0  0  0  0
   34.5499   53.2039   59.6020 C   0  0  0  0  0  0  0  0  0  0  0  0
   35.9333   53.3097   59.7378 C   0  0  0  0  0  0  0  0  0  0  0  0
   36.7804   52.8064   58.7475 C   0  0  0  0  0  0  0  0  0  0  0  0
   38.5920   51.7231   56.6188 C   0  0  1  0  0  0  0  0  0  0  0  0
   39.1389   50.5204   57.3218 C   0  0  0  0  0  0  0  0  0  0  0  0
   40.1056   50.6385   58.1214 O   0  0  0  0  0  0  0  0  0  0  0  0
   38.5792   49.2680   57.0886 O   0  0  0  0  0  0  0  0  0  0  0  0
   37.0949   50.6108   54.6691 H   0  0  0  0  0  0  0  0  0  0  0  0
   34.6558   50.4475   54.4906 H   0  0  0  0  0  0  0  0  0  0  0  0
   33.2017   51.3671   56.2442 H   0  0  0  0  0  0  0  0  0  0  0  0
   32.9243   52.5150   58.3901 H   0  0  0  0  0  0  0  0  0  0  0  0
   33.8999   53.5964   60.3735 H   0  0  0  0  0  0  0  0  0  0  0  0
   36.3525   53.7836   60.6161 H   0  0  0  0  0  0  0  0  0  0  0  0
   37.8443   52.9081   58.9022 H   0  0  0  0  0  0  0  0  0  0  0  0
   39.0217   51.7514   55.5941 H   0  0  0  0  0  0  0  0  0  0  0  0
   38.9294   52.6597   57.1109 H   0  0  0  0  0  0  0  0  0  0  0  0
   39.1298   48.5201   56.6841 H   0  0  0  0  0  0  0  0  0  0  0  0
  1  2  2  0
  2  3  1  0
  3  4  2  0
  4  5  1  0
  1  6  1  0
  5  6  2  0
  6  7  1  0
  7  8  2  0
  8  9  1  0
  1 10  1  0
  9 10  2  0
  2 11  1  0
 11 12  1  0
 12 13  2  0
 12 14  1  0
  3 15  1  0
  4 16  1  0
  5 17  1  0
  7 18  1  0
  8 19  1  0
  9 20  1  0
 10 21  1  0
 11 22  1  6
 11 23  1  0
 14 24  1  0
M  END
