8H0M_2EH_A_405
     RDKit          3D

  9  8  0  0  0  0  0  0  0  0999 V2000
   32.2191   15.5834   15.8434 C   0  0  0  0  0  0  0  0  0  0  0  0
   30.5748   17.0400   14.8684 C   0  0  0  0  0  0  0  0  0  0  0  0
   30.2769   18.0931   13.8732 C   0  0  0  0  0  0  0  0  0  0  0  0
   32.3699   18.7627   17.6814 C   0  0  0  0  0  0  0  0  0  0  0  0
   31.8080   17.1475   15.6908 C   0  0  1  0  0  0  0  0  0  0  0  0
   32.5110   15.0939   14.5983 O   0  0  0  0  0  0  0  0  0  0  0  0
   31.7280   17.6179   17.0910 C   0  0  0  0  0  0  0  0  0  0  0  0
   32.6401   18.9861   19.1018 C   0  0  0  0  0  0  0  0  0  0  0  0
   31.4823   19.9449   19.5692 C   0  0  0  0  0  0  0  0  0  0  0  0
  2  3  1  6
  5  1  1  1
  2  5  1  0
  1  6  1  6
  4  7  1  6
  7  5  1  1
  4  8  1  0
  8  9  1  6
M  END
$$$$
