6XM9_V55_A_501
     RDKit          3D

 11 11  0  0  0  0  0  0  0  0999 V2000
   39.9989   26.0992   27.7934 C   0  0  0  0  0  0  0  0  0  0  0  0
   38.7731   26.3580   27.2300 C   0  0  0  0  0  0  0  0  0  0  0  0
   38.0050   27.4345   27.6170 C   0  0  0  0  0  0  0  0  0  0  0  0
   38.5363   28.2464   28.6093 C   0  0  0  0  0  0  0  0  0  0  0  0
   39.7688   27.9918   29.1804 C   0  0  0  0  0  0  0  0  0  0  0  0
   41.9589   24.7709   27.7319 O   0  0  0  0  0  0  0  0  0  0  0  0
   40.5229   26.9051   28.7762 C   0  0  0  0  0  0  0  0  0  0  0  0
   40.7640   24.9474   27.3436 C   0  0  0  0  0  0  0  0  0  0  0  0
   36.1621   26.9475   26.1131 C   0  0  0  0  0  0  0  0  0  0  0  0
   36.7782   27.7506   27.0993 O   0  0  0  0  0  0  0  0  0  0  0  0
   37.7933   29.3543   29.0375 O   0  0  0  0  0  0  0  0  0  0  0  0
  1  2  2  0
  2  3  1  0
  3  4  2  0
  4  5  1  0
  1  7  1  0
  5  7  2  0
  1  8  1  0
  6  8  2  0
  3 10  1  0
  9 10  1  0
  4 11  1  0
M  END
$$$$
