7ELT_TYM_A_401
     RDKit          3D

 37 41  0  0  0  0  0  0  0  0999 V2000
   11.6659   46.4404   16.0218 P   0  0  2  0  0  5  0  0  0  0  0  0
   12.0333   46.2002   17.6494 O   0  0  0  0  0  0  0  0  0  0  0  0
   10.3742   45.7158   15.6533 O   0  0  0  0  0  0  0  0  0  0  0  0
   12.9254   45.9585   15.0024 O   0  0  0  0  0  0  0  0  0  0  0  0
   12.5532   45.9607   13.6755 C   0  0  0  0  0  0  0  0  0  0  0  0
   13.3440   47.0427   12.9630 C   0  0  1  0  0  0  0  0  0  0  0  0
   14.0236   47.8585   13.8273 O   0  0  0  0  0  0  0  0  0  0  0  0
   15.3289   47.9538   13.4114 C   0  0  1  0  0  0  0  0  0  0  0  0
   16.2123   48.3410   14.4894 N   0  0  0  0  0  0  0  0  0  0  0  0
   17.4377   48.8817   14.3683 C   0  0  0  0  0  0  0  0  0  0  0  0
   18.2216   49.2303   13.3321 N   0  0  0  0  0  0  0  0  0  0  0  0
   19.4468   49.7701   13.4908 C   0  0  0  0  0  0  0  0  0  0  0  0
   19.9224   49.9763   14.7393 N   0  0  0  0  0  0  0  0  0  0  0  0
   19.1904   49.6505   15.8216 C   0  0  0  0  0  0  0  0  0  0  0  0
   19.6426   49.8462   17.1502 N   0  0  0  0  0  0  0  0  0  0  0  0
   17.9340   49.0970   15.6468 C   0  0  0  0  0  0  0  0  0  0  0  0
   16.9727   48.6708   16.4904 N   0  0  0  0  0  0  0  0  0  0  0  0
   15.9189   48.2080   15.7897 C   0  0  0  0  0  0  0  0  0  0  0  0
   15.6148   46.5221   12.9575 C   0  0  2  0  0  0  0  0  0  0  0  0
   16.7784   46.3974   12.2425 O   0  0  0  0  0  0  0  0  0  0  0  0
   14.3576   46.3134   12.0998 C   0  0  2  0  0  0  0  0  0  0  0  0
   14.4428   47.0232   10.9005 O   0  0  0  0  0  0  0  0  0  0  0  0
    8.9037   50.6848   16.2761 N   0  0  0  0  0  0  0  0  0  0  0  0
   10.2324   50.1736   16.4889 C   0  0  1  0  0  0  0  0  0  0  0  0
   10.6433   50.2814   17.9183 C   0  0  0  0  0  0  0  0  0  0  0  0
   10.7530   51.6797   18.3835 C   0  0  0  0  0  0  0  0  0  0  0  0
   10.4467   52.2473   19.5994 C   0  0  0  0  0  0  0  0  0  0  0  0
   10.7414   53.5999   19.5896 C   0  0  0  0  0  0  0  0  0  0  0  0
    9.9188   51.7154   20.7521 C   0  0  0  0  0  0  0  0  0  0  0  0
   11.2476   52.7338   17.6208 C   0  0  0  0  0  0  0  0  0  0  0  0
   11.2333   53.8638   18.3520 N   0  0  0  0  0  0  0  0  0  0  0  0
   10.5193   54.4023   20.6929 C   0  0  0  0  0  0  0  0  0  0  0  0
    9.6850   52.4855   21.8687 C   0  0  0  0  0  0  0  0  0  0  0  0
    9.9893   53.8439   21.8370 C   0  0  0  0  0  0  0  0  0  0  0  0
   10.1740   48.7067   16.1726 C   0  0  0  0  0  0  0  0  0  0  0  0
    9.1120   48.0441   16.2491 O   0  0  0  0  0  0  0  0  0  0  0  0
   11.3638   48.1089   15.7866 O   0  0  0  0  0  0  0  0  0  0  0  0
  1  2  1  1
  1  3  2  0
  1  4  1  0
  5  4  1  1
  6  5  1  0
  6  7  1  1
  7  8  1  0
  8  9  1  1
  9 10  1  0
 10 11  2  0
 11 12  1  0
 12 13  2  0
 13 14  1  0
 14 15  1  0
 10 16  1  0
 14 16  2  0
 16 17  1  0
  9 18  1  0
 17 18  2  0
  8 19  1  0
 19 20  1  6
  6 21  1  0
 19 21  1  0
 21 22  1  6
 24 23  1  1
 24 25  1  0
 25 26  1  6
 26 27  1  0
 27 28  1  0
 27 29  2  0
 26 30  2  0
 28 31  1  0
 30 31  1  0
 28 32  2  0
 29 33  1  0
 32 34  1  0
 33 34  2  0
 24 35  1  0
 35 36  2  0
  1 37  1  0
 35 37  1  0
M  END
$$$$
