
     RDKit          3D

 39 41  0  0  0  0  0  0  0  0999 V2000
   25.9705  -28.8784   37.3713 C   0  0  1  0  0  0  0  0  0  0  0  0
   25.8305  -27.7567   36.3182 C   0  0  1  0  0  0  0  0  0  0  0  0
   26.4763  -26.4648   36.8418 C   0  0  2  0  0  0  0  0  0  0  0  0
   25.9210  -26.0949   38.2292 C   0  0  1  0  0  0  0  0  0  0  0  0
   25.9006  -27.3132   39.1771 C   0  0  1  0  0  0  0  0  0  0  0  0
   25.1171  -27.0007   40.4636 C   0  0  0  0  0  0  0  0  0  0  0  0
   25.4798  -28.5168   33.9914 C   0  0  0  0  0  0  0  0  0  0  0  0
   26.1501  -28.8951   32.6994 C   0  0  0  0  0  0  0  0  0  0  0  0
   26.3415  -28.1018   34.9834 N   0  0  0  0  0  0  0  0  0  0  0  0
   27.3116  -29.2096   37.6817 O   0  0  0  0  0  0  0  0  0  0  0  0
   26.2020  -25.3978   35.9134 O   0  0  0  0  0  0  0  0  0  0  0  0
   26.7265  -25.0506   38.7925 O   0  0  0  0  0  0  0  0  0  0  0  0
   25.3084  -28.4727   38.5776 O   0  0  0  0  0  0  0  0  0  0  0  0
   23.8200  -26.4881   40.1731 O   0  0  0  0  0  0  0  0  0  0  0  0
   24.2633  -28.5683   34.1420 O   0  0  0  0  0  0  0  0  0  0  0  0
   29.9524  -33.6338   43.1104 N   0  0  0  0  0  0  0  0  0  0  0  0
   30.1989  -34.9287   43.5490 C   0  0  0  0  0  0  0  0  0  0  0  0
   29.8215  -35.9320   42.6979 N   0  0  0  0  0  0  0  0  0  0  0  0
   29.3577  -35.7666   41.4255 C   0  0  0  0  0  0  0  0  0  0  0  0
   29.0858  -34.3800   41.0246 C   0  0  0  0  0  0  0  0  0  0  0  0
   29.3889  -33.3930   41.8706 C   0  0  0  0  0  0  0  0  0  0  0  0
   30.7528  -35.1855   44.6180 O   0  0  0  0  0  0  0  0  0  0  0  0
   29.1864  -36.6987   40.6481 O   0  0  0  0  0  0  0  0  0  0  0  0
   30.3277  -32.5411   44.0179 C   0  0  1  0  0  0  0  0  0  0  0  0
   30.8070  -31.2838   43.2607 C   0  0  2  0  0  0  0  0  0  0  0  0
   32.2187  -31.2171   43.0379 O   0  0  0  0  0  0  0  0  0  0  0  0
   30.3766  -30.1726   44.1984 C   0  0  1  0  0  0  0  0  0  0  0  0
   29.0713  -30.7111   44.7723 C   0  0  2  0  0  0  0  0  0  0  0  0
   29.2126  -32.1489   44.8430 O   0  0  0  0  0  0  0  0  0  0  0  0
   31.3545  -30.0400   45.2422 O   0  0  0  0  0  0  0  0  0  0  0  0
   27.8485  -30.3995   43.9068 C   0  0  0  0  0  0  0  0  0  0  0  0
   28.2150  -30.2812   42.5418 O   0  0  0  0  0  0  0  0  0  0  0  0
   27.0915  -30.5654   41.4281 P   0  0  1  0  0  5  0  0  0  0  0  0
   26.7584  -32.0053   41.2365 O   0  0  0  0  0  0  0  0  0  0  0  0
   25.8386  -29.7178   41.9527 O   0  0  0  0  0  0  0  0  0  0  0  0
   27.5881  -29.7959   40.1334 O   0  0  0  0  0  0  0  0  0  0  0  0
   27.6042  -30.4244   38.6815 P   0  0  1  0  0  5  0  0  0  0  0  0
   26.7417  -31.6237   38.4612 O   0  0  0  0  0  0  0  0  0  0  0  0
   29.1527  -30.6797   38.3952 O   0  0  0  0  0  0  0  0  0  0  0  0
  1  2  1  0
  2  3  1  0
  3  4  1  0
  4  5  1  0
  5  6  1  1
  7  8  1  0
  2  9  1  6
  7  9  1  0
  1 10  1  1
  3 11  1  6
  4 12  1  1
  1 13  1  0
  5 13  1  0
  6 14  1  0
  7 15  2  0
 16 17  4  0
 17 18  4  0
 18 19  4  0
 19 20  4  0
 16 21  4  0
 20 21  4  0
 17 22  2  0
 19 23  2  0
 24 16  1  6
 24 25  1  0
 25 26  1  1
 25 27  1  0
 27 28  1  0
 24 29  1  0
 28 29  1  0
 27 30  1  1
 28 31  1  6
 31 32  1  0
 32 33  1  0
 33 34  2  0
 33 35  1  1
 33 36  1  0
 10 37  1  0
 36 37  1  0
 37 38  2  0
 37 39  1  6
M  END
