6M73_FNR_A_401
     RDKit          3D

 54 56  0  0  0  0  0  0  0  0999 V2000
   30.3869    5.3916   33.5249 C   0  0  0  0  0  0  0  0  0  0  0  0
   31.0780    6.6398   33.8478 N   0  0  0  0  0  0  0  0  0  0  0  0
   32.5252    6.6183   34.0565 C   0  0  0  0  0  0  0  0  0  0  0  0
   33.2168    7.7238   34.4832 N   0  0  0  0  0  0  0  0  0  0  0  0
   34.5671    7.6977   34.6528 C   0  0  0  0  0  0  0  0  0  0  0  0
   35.1720    8.7332   35.0421 O   0  0  0  0  0  0  0  0  0  0  0  0
   35.2659    6.5599   34.4098 N   0  0  0  0  0  0  0  0  0  0  0  0
   34.6327    5.4267   34.0152 C   0  0  0  0  0  0  0  0  0  0  0  0
   35.3026    4.3772   33.8155 O   0  0  0  0  0  0  0  0  0  0  0  0
   33.2414    5.4277   33.8374 C   0  0  0  0  0  0  0  0  0  0  0  0
   32.5523    4.2311   33.4651 N   0  0  0  0  0  0  0  0  0  0  0  0
   31.1284    4.2065   33.3553 C   0  0  0  0  0  0  0  0  0  0  0  0
   30.4852    2.9950   33.0718 C   0  0  0  0  0  0  0  0  0  0  0  0
   29.0918    2.9286   32.9516 C   0  0  0  0  0  0  0  0  0  0  0  0
   28.4359    1.6031   32.6629 C   0  0  1  0  0  0  0  0  0  0  0  0
   28.3306    4.1057   33.1047 C   0  0  0  0  0  0  0  0  0  0  0  0
   26.8274    4.0805   32.9892 C   0  0  2  0  0  0  0  0  0  0  0  0
   28.9815    5.3219   33.3689 C   0  0  0  0  0  0  0  0  0  0  0  0
   30.3193    7.9109   33.8926 C   0  0  2  0  0  0  0  0  0  0  0  0
   29.1945    7.8946   34.9589 C   0  0  2  0  0  0  0  0  0  0  0  0
   28.4389    9.0725   34.8292 O   0  0  0  0  0  0  0  0  0  0  0  0
   29.7178    7.7799   36.4106 C   0  0  2  0  0  0  0  0  0  0  0  0
   30.6083    6.6955   36.5026 O   0  0  0  0  0  0  0  0  0  0  0  0
   28.5722    7.6039   37.4517 C   0  0  2  0  0  0  0  0  0  0  0  0
   28.4940    8.7412   38.2763 O   0  0  0  0  0  0  0  0  0  0  0  0
   28.7050    6.3250   38.3098 C   0  0  2  0  0  0  0  0  0  0  0  0
   28.2452    5.2112   37.5762 O   0  0  0  0  0  0  0  0  0  0  0  0
   28.5292    5.4822   35.9164 P   0  0  1  0  0  5  0  0  0  0  0  0
   29.4859    6.8653   35.7214 O   0  0  0  0  0  0  0  0  0  0  0  0
   29.2274    4.2890   35.3015 O   0  0  0  0  0  0  0  0  0  0  0  0
   27.0475    5.7231   35.1365 O   0  0  0  0  0  0  0  0  0  0  0  0
   32.7394    8.6148   34.7251 H   0  0  0  0  0  0  0  0  0  0  0  0
   36.3034    6.5529   34.5421 H   0  0  0  0  0  0  0  0  0  0  0  0
   33.0908    3.3501   33.3013 H   0  0  0  0  0  0  0  0  0  0  0  0
   31.0796    2.0973   32.9499 H   0  0  0  0  0  0  0  0  0  0  0  0
   27.7628    1.6973   31.7852 H   0  0  0  0  0  0  0  0  0  0  0  0
   29.1843    0.8148   32.4352 H   0  0  0  0  0  0  0  0  0  0  0  0
   27.8478    1.2741   33.5449 H   0  0  0  0  0  0  0  0  0  0  0  0
   26.4772    4.9719   32.4281 H   0  0  0  0  0  0  0  0  0  0  0  0
   26.3719    4.0784   34.0013 H   0  0  0  0  0  0  0  0  0  0  0  0
   26.4684    3.1777   32.4500 H   0  0  0  0  0  0  0  0  0  0  0  0
   28.3663    6.2030   33.4527 H   0  0  0  0  0  0  0  0  0  0  0  0
   29.8760    8.1005   32.8924 H   0  0  0  0  0  0  0  0  0  0  0  0
   30.9682    8.7963   34.0189 H   0  0  0  0  0  0  0  0  0  0  0  0
   28.5451    7.0133   34.7763 H   0  0  0  0  0  0  0  0  0  0  0  0
   27.9236    8.9944   33.9839 H   0  0  0  0  0  0  0  0  0  0  0  0
   30.2444    8.7331   36.6534 H   0  0  0  0  0  0  0  0  0  0  0  0
   30.9426    6.6681   37.4369 H   0  0  0  0  0  0  0  0  0  0  0  0
   27.6053    7.5484   36.9056 H   0  0  0  0  0  0  0  0  0  0  0  0
   28.5683    9.5441   37.6970 H   0  0  0  0  0  0  0  0  0  0  0  0
   28.0704    6.4359   39.2168 H   0  0  0  0  0  0  0  0  0  0  0  0
   29.7657    6.2240   38.6379 H   0  0  0  0  0  0  0  0  0  0  0  0
   28.9894    7.5843   36.1875 H   0  0  0  0  0  0  0  0  0  0  0  0
   26.4929    4.9471   35.4032 H   0  0  0  0  0  0  0  0  0  0  0  0
  1  2  1  0
  2  3  1  0
  3  4  1  0
  4  5  1  0
  5  6  2  0
  5  7  1  0
  7  8  1  0
  8  9  2  0
  3 10  2  0
  8 10  1  0
 10 11  1  0
  1 12  2  0
 11 12  1  0
 12 13  1  0
 13 14  2  0
 14 15  1  0
 14 16  1  0
 16 17  1  0
  1 18  1  0
 16 18  2  0
  2 19  1  0
 19 20  1  0
 20 21  1  0
 20 22  1  0
 22 23  1  0
 22 24  1  0
 24 25  1  0
 24 26  1  0
 26 27  1  0
 28 27  1  1
 28 29  1  0
 28 30  2  0
 28 31  1  0
  4 32  1  0
  7 33  1  0
 11 34  1  0
 13 35  1  0
 15 36  1  6
 15 37  1  0
 15 38  1  0
 17 39  1  6
 17 40  1  0
 17 41  1  0
 18 42  1  0
 19 43  1  6
 19 44  1  0
 20 45  1  6
 21 46  1  0
 22 47  1  1
 23 48  1  0
 24 49  1  6
 25 50  1  0
 26 51  1  1
 26 52  1  0
 29 53  1  0
 31 54  1  0
M  END
