7PGX_FMN_AAA_618
     RDKit          3D

 52 54  0  0  0  0  0  0  0  0999 V2000
  -21.9747    4.5707   -6.9404 N   0  0  0  0  0  0  0  0  0  0  0  0
  -23.1602    5.0153   -6.5374 C   0  0  0  0  0  0  0  0  0  0  0  0
  -23.6863    6.0470   -7.0553 O   0  0  0  0  0  0  0  0  0  0  0  0
  -23.8783    4.3239   -5.5811 N   0  0  0  0  0  4  0  0  0  0  0  0
  -23.4321    3.2191   -4.9186 C   0  0  0  0  0  0  0  0  0  0  0  0
  -24.1709    2.6385   -4.1088 O   0  0  0  0  0  0  0  0  0  0  0  0
  -22.1251    2.7597   -5.2857 C   0  0  0  0  0  0  0  0  0  0  0  0
  -21.6101    1.6946   -4.6657 N   0  0  0  0  0  0  0  0  0  0  0  0
  -20.4117    1.2232   -5.1193 C   0  0  0  0  0  0  0  0  0  0  0  0
  -19.8585    0.0621   -4.5451 C   0  0  0  0  0  0  0  0  0  0  0  0
  -18.6868   -0.4730   -4.9807 C   0  0  0  0  0  0  0  0  0  0  0  0
  -18.1927   -1.7734   -4.3922 C   0  0  0  0  0  0  0  0  0  0  0  0
  -17.9603    0.1953   -5.9820 C   0  0  0  0  0  0  0  0  0  0  0  0
  -16.6295   -0.3235   -6.4610 C   0  0  0  0  0  0  0  0  0  0  0  0
  -18.4667    1.3504   -6.5477 C   0  0  0  0  0  0  0  0  0  0  0  0
  -19.7010    1.8805   -6.1462 C   0  0  0  0  0  0  0  0  0  0  0  0
  -20.2458    3.0197   -6.7538 N   0  0  0  0  0  4  0  0  0  0  0  0
  -21.4651    3.4922   -6.3373 C   0  0  0  0  0  0  0  0  0  0  0  0
  -19.6137    3.6084   -7.9495 C   0  0  0  0  0  0  0  0  0  0  0  0
  -20.5214    4.3777   -8.8911 C   0  0  1  0  0  0  0  0  0  0  0  0
  -20.5310    3.7401  -10.1717 O   0  0  0  0  0  0  0  0  0  0  0  0
  -21.9244    4.4597   -8.3085 C   0  0  1  0  0  0  0  0  0  0  0  0
  -22.7557    3.4988   -8.9189 O   0  0  0  0  0  0  0  0  0  0  0  0
  -21.9533    4.2873   -6.7806 C   0  0  1  0  0  0  0  0  0  0  0  0
  -21.3195    5.4008   -6.1819 O   0  0  0  0  0  0  0  0  0  0  0  0
  -23.3537    4.1150   -6.2521 C   0  0  0  0  0  0  0  0  0  0  0  0
  -24.3936    4.4065   -7.2239 O   0  0  0  0  0  0  0  0  0  0  0  0
  -24.0248    4.4893   -8.7863 P   0  0  1  0  0  5  0  0  0  0  0  0
  -22.8753    3.5638   -9.0244 O   0  0  0  0  0  0  0  0  0  0  0  0
  -25.3177    4.0158   -9.4624 O   0  0  0  0  0  0  0  0  0  0  0  0
  -23.6741    5.9449   -9.0879 O   0  0  0  0  0  0  0  0  0  0  0  0
  -24.7795    4.6536   -5.3615 H   0  0  0  0  0  0  0  0  0  0  0  0
  -20.3589   -0.3976   -3.7683 H   0  0  0  0  0  0  0  0  0  0  0  0
  -18.8849   -2.1154   -3.6514 H   0  0  0  0  0  0  0  0  0  0  0  0
  -18.1086   -2.5064   -5.1671 H   0  0  0  0  0  0  0  0  0  0  0  0
  -17.2347   -1.6197   -3.9412 H   0  0  0  0  0  0  0  0  0  0  0  0
  -16.3821   -1.2173   -5.9273 H   0  0  0  0  0  0  0  0  0  0  0  0
  -16.6858   -0.5372   -7.5079 H   0  0  0  0  0  0  0  0  0  0  0  0
  -15.8754    0.4156   -6.2879 H   0  0  0  0  0  0  0  0  0  0  0  0
  -17.9246    1.8330   -7.2814 H   0  0  0  0  0  0  0  0  0  0  0  0
  -18.8497    4.2790   -7.6155 H   0  0  0  0  0  0  0  0  0  0  0  0
  -19.2589    2.7750   -8.5191 H   0  0  0  0  0  0  0  0  0  0  0  0
  -20.1543    5.3755   -9.0115 H   0  0  0  0  0  0  0  0  0  0  0  0
  -20.8619    2.8330  -10.0789 H   0  0  0  0  0  0  0  0  0  0  0  0
  -22.2886    5.4444   -8.5146 H   0  0  0  0  0  0  0  0  0  0  0  0
  -22.4179    2.6101   -8.7267 H   0  0  0  0  0  0  0  0  0  0  0  0
  -21.4254    3.3908   -6.5303 H   0  0  0  0  0  0  0  0  0  0  0  0
  -21.8021    6.2101   -6.4122 H   0  0  0  0  0  0  0  0  0  0  0  0
  -23.4691    3.1011   -5.9300 H   0  0  0  0  0  0  0  0  0  0  0  0
  -23.4712    4.8177   -5.4538 H   0  0  0  0  0  0  0  0  0  0  0  0
  -25.4823    3.0882   -9.2316 H   0  0  0  0  0  0  0  0  0  0  0  0
  -22.8503    6.1800   -8.6327 H   0  0  0  0  0  0  0  0  0  0  0  0
  1  2  4  0
  2  3  2  0
  2  4  4  0
  4  5  4  0
  5  6  2  0
  5  7  4  0
  7  8  4  0
  8  9  4  0
  9 10  4  0
 10 11  4  0
 11 12  1  0
 11 13  4  0
 13 14  1  0
 13 15  4  0
  9 16  4  0
 15 16  4  0
 16 17  4  0
  1 18  4  0
  7 18  1  0
 17 18  4  0
 17 19  1  0
 19 20  1  0
 20 21  1  0
 20 22  1  0
 22 23  1  0
 22 24  1  0
 24 25  1  0
 24 26  1  0
 26 27  1  0
 28 27  1  6
 28 29  2  0
 28 30  1  0
 28 31  1  0
  4 32  1  0
 10 33  1  0
 12 34  1  0
 12 35  1  0
 12 36  1  0
 14 37  1  0
 14 38  1  0
 14 39  1  0
 15 40  1  0
 19 41  1  0
 19 42  1  0
 20 43  1  1
 21 44  1  0
 22 45  1  6
 23 46  1  0
 24 47  1  1
 25 48  1  0
 26 49  1  0
 26 50  1  0
 30 51  1  0
 31 52  1  0
M  CHG  2   4   1  17   1
M  END
