
     RDKit          3D

 44 50  0  0  0  0  0  0  0  0999 V2000
   -0.1370    1.8152   12.3279 P   0  0  0  0  0  5  0  0  0  0  0  0
   -0.3928    1.0160   11.0943 O   0  0  0  0  0  0  0  0  0  0  0  0
   -0.7358    3.2901   12.1740 O   0  0  0  0  0  0  0  0  0  0  0  0
    1.4043    2.0747   12.6859 O   0  0  0  0  0  0  0  0  0  0  0  0
    2.3421    1.1909   12.0824 C   0  0  0  0  0  0  0  0  0  0  0  0
    3.7400    1.3705   12.6661 C   0  0  1  0  0  0  0  0  0  0  0  0
    4.3196    2.6334   12.2777 O   0  0  0  0  0  0  0  0  0  0  0  0
    3.7894    1.3746   14.1823 C   0  0  1  0  0  0  0  0  0  0  0  0
    3.5907    0.0858   14.7322 O   0  0  0  0  0  0  0  0  0  0  0  0
    5.1820    1.9335   14.4240 C   0  0  1  0  0  0  0  0  0  0  0  0
    6.1659    0.9070   14.1846 O   0  0  0  0  0  0  0  0  0  0  0  0
    5.2612    3.0057   13.3189 C   0  0  2  0  0  0  0  0  0  0  0  0
    4.9994    4.3827   13.6805 N   0  0  0  0  0  0  0  0  0  0  0  0
    3.7414    4.9355   13.6919 C   0  0  0  0  0  0  0  0  0  0  0  0
    3.7709    6.2361   13.8781 N   0  0  0  0  0  0  0  0  0  0  0  0
    5.1075    6.5360   14.0404 C   0  0  0  0  0  0  0  0  0  0  0  0
    5.7894    7.7553   14.2196 C   0  0  0  0  0  0  0  0  0  0  0  0
    5.1492    8.9888   14.2721 N   0  0  0  0  0  0  0  0  0  0  0  0
    7.1411    7.7352   14.2820 N   0  0  0  0  0  0  0  0  0  0  0  0
    7.7667    6.5423   14.2290 C   0  0  0  0  0  0  0  0  0  0  0  0
    7.2184    5.3205   14.0617 N   0  0  0  0  0  0  0  0  0  0  0  0
    5.8837    5.3913   13.9515 C   0  0  0  0  0  0  0  0  0  0  0  0
    2.8276    0.0580   16.1452 P   0  0  2  0  0  5  0  0  0  0  0  0
    3.4751    0.8717   17.2135 O   0  0  0  0  0  0  0  0  0  0  0  0
    2.7495   -1.5187   16.3984 O   0  0  0  0  0  0  0  0  0  0  0  0
    1.3411    0.4455   15.6821 O   0  0  0  0  0  0  0  0  0  0  0  0
    0.4496    0.8704   16.6923 C   0  0  0  0  0  0  0  0  0  0  0  0
   -0.9124    1.2472   16.1135 C   0  0  1  0  0  0  0  0  0  0  0  0
   -1.6123    2.0446   17.0970 O   0  0  0  0  0  0  0  0  0  0  0  0
   -0.8624    2.0698   14.8200 C   0  0  1  0  0  0  0  0  0  0  0  0
   -0.8395    1.2558   13.6579 O   0  0  0  0  0  0  0  0  0  0  0  0
   -2.1684    2.8458   14.9281 C   0  0  1  0  0  0  0  0  0  0  0  0
   -3.2785    1.9741   14.6188 O   0  0  0  0  0  0  0  0  0  0  0  0
   -2.1929    3.1919   16.4203 C   0  0  2  0  0  0  0  0  0  0  0  0
   -1.4687    4.3686   16.8662 N   0  0  0  0  0  0  0  0  0  0  0  0
   -0.6890    5.1496   16.0483 C   0  0  0  0  0  0  0  0  0  0  0  0
   -0.1248    6.1487   16.6988 N   0  0  0  0  0  0  0  0  0  0  0  0
   -0.5694    6.0172   17.9971 C   0  0  0  0  0  0  0  0  0  0  0  0
   -0.3575    6.7810   19.1600 C   0  0  0  0  0  0  0  0  0  0  0  0
    0.4105    7.9413   19.1928 N   0  0  0  0  0  0  0  0  0  0  0  0
   -0.9770    6.4072   20.2994 N   0  0  0  0  0  0  0  0  0  0  0  0
   -1.7889    5.3313   20.2695 C   0  0  0  0  0  0  0  0  0  0  0  0
   -2.0684    4.5328   19.2224 N   0  0  0  0  0  0  0  0  0  0  0  0
   -1.4198    4.9263   18.1151 C   0  0  0  0  0  0  0  0  0  0  0  0
  1  2  2  0
  1  3  1  0
  1  4  1  0
  4  5  1  0
  6  5  1  1
  6  7  1  0
  6  8  1  0
  8  9  1  6
  8 10  1  0
 10 11  1  6
  7 12  1  0
 10 12  1  0
 12 13  1  1
 13 14  4  0
 14 15  4  0
 15 16  4  0
 16 17  4  0
 17 18  1  0
 17 19  4  0
 19 20  4  0
 20 21  4  0
 13 22  4  0
 16 22  4  0
 21 22  4  0
  9 23  1  0
 23 24  2  0
 23 25  1  1
 23 26  1  0
 26 27  1  0
 28 27  1  1
 28 29  1  0
 28 30  1  0
  1 31  1  0
 30 31  1  6
 30 32  1  0
 32 33  1  1
 29 34  1  0
 32 34  1  0
 34 35  1  6
 35 36  4  0
 36 37  4  0
 37 38  4  0
 38 39  4  0
 39 40  1  0
 39 41  4  0
 41 42  4  0
 42 43  4  0
 35 44  4  0
 38 44  4  0
 43 44  4  0
M  END
