7N7B_T3F_A_302
     RDKit          3D

 62 64  0  0  0  0  0  0  0  0999 V2000
   26.1276  -10.6277   21.8488 O   0  0  0  0  0  0  0  0  0  0  0  0
   27.3859   -9.7594   21.1161 P   0  0  2  0  0  5  0  0  0  0  0  0
   28.6993  -10.4519   21.4100 O   0  0  0  0  0  0  0  0  0  0  0  0
   27.3908   -8.1555   21.7117 O   0  0  0  0  0  0  0  0  0  0  0  0
   26.2212   -7.9180   22.4732 C   0  0  1  0  0  0  0  0  0  0  0  0
   26.2741   -8.5896   23.7266 O   0  0  0  0  0  0  0  0  0  0  0  0
   27.3969   -8.1722   24.4892 C   0  0  2  0  0  0  0  0  0  0  0  0
   27.4986   -9.0554   25.7352 C   0  0  2  0  0  0  0  0  0  0  0  0
   26.0337   -6.4007   22.6773 C   0  0  2  0  0  0  0  0  0  0  0  0
   26.0325   -5.7658   21.4231 O   0  0  0  0  0  0  0  0  0  0  0  0
   27.1651   -5.8383   23.5670 C   0  0  1  0  0  0  0  0  0  0  0  0
   26.9150   -4.4310   23.8959 N   0  0  0  0  0  0  0  0  0  0  0  0
   27.2794   -6.6773   24.8577 C   0  0  1  0  0  0  0  0  0  0  0  0
   26.1466   -6.4761   25.6704 O   0  0  0  0  0  0  0  0  0  0  0  0
   27.1684   -9.7331   19.4273 O   0  0  0  0  0  0  0  0  0  0  0  0
   26.9642   -8.1139   18.9135 P   0  0  1  0  0  5  0  0  0  0  0  0
   25.3463   -7.9159   18.4625 O   0  0  0  0  0  0  0  0  0  0  0  0
   27.2841   -7.0885   19.9815 O   0  0  0  0  0  0  0  0  0  0  0  0
   27.9288   -7.8220   17.5376 O   0  0  0  0  0  0  0  0  0  0  0  0
   28.9553   -6.9194   17.8803 C   0  0  1  0  0  0  0  0  0  0  0  0
   29.9119   -6.7769   16.6912 C   0  0  1  0  0  0  0  0  0  0  0  0
   30.9833   -5.9210   17.0179 O   0  0  0  0  0  0  0  0  0  0  0  0
   30.5125   -8.1212   16.2508 C   0  0  1  0  0  0  0  0  0  0  0  0
   29.8505   -8.6250   15.1184 O   0  0  0  0  0  0  0  0  0  0  0  0
   31.9456   -7.7741   15.9080 C   0  0  1  0  0  0  0  0  0  0  0  0
   32.0025   -6.2654   16.1059 C   0  0  2  0  0  0  0  0  0  0  0  0
   33.3356   -5.8397   16.5834 N   0  0  0  0  0  0  0  0  0  0  0  0
   33.9238   -4.7117   16.0659 C   0  0  0  0  0  0  0  0  0  0  0  0
   33.3216   -4.0074   15.2082 O   0  0  0  0  0  0  0  0  0  0  0  0
   35.1701   -4.3404   16.4636 N   0  0  0  0  0  0  0  0  0  0  0  0
   34.0286   -6.6108   17.4791 C   0  0  0  0  0  0  0  0  0  0  0  0
   35.3059   -6.2331   17.9131 C   0  0  0  0  0  0  0  0  0  0  0  0
   36.0555   -7.0987   18.8915 C   0  0  2  0  0  0  0  0  0  0  0  0
   35.8697   -5.0702   17.3687 C   0  0  0  0  0  0  0  0  0  0  0  0
   37.0265   -4.6967   17.7055 O   0  0  0  0  0  0  0  0  0  0  0  0
   26.5510  -11.0896   22.6197 H   0  0  0  0  0  0  0  0  0  0  0  0
   25.3149   -8.2706   21.9264 H   0  0  0  0  0  0  0  0  0  0  0  0
   28.3438   -8.3323   23.9237 H   0  0  0  0  0  0  0  0  0  0  0  0
   28.3547   -8.7234   26.3618 H   0  0  0  0  0  0  0  0  0  0  0  0
   27.6624  -10.1193   25.4560 H   0  0  0  0  0  0  0  0  0  0  0  0
   26.5751   -8.9704   26.3430 H   0  0  0  0  0  0  0  0  0  0  0  0
   25.0515   -6.2460   23.1871 H   0  0  0  0  0  0  0  0  0  0  0  0
   25.2725   -5.1273   21.4208 H   0  0  0  0  0  0  0  0  0  0  0  0
   28.1329   -5.9109   23.0149 H   0  0  0  0  0  0  0  0  0  0  0  0
   27.2394   -3.8379   23.0971 H   0  0  0  0  0  0  0  0  0  0  0  0
   27.5279   -4.1704   24.7038 H   0  0  0  0  0  0  0  0  0  0  0  0
   28.2075   -6.3718   25.3939 H   0  0  0  0  0  0  0  0  0  0  0  0
   26.4398   -5.9320   26.4457 H   0  0  0  0  0  0  0  0  0  0  0  0
   25.1157   -7.0005   18.7570 H   0  0  0  0  0  0  0  0  0  0  0  0
   28.5350   -5.9105   18.0992 H   0  0  0  0  0  0  0  0  0  0  0  0
   29.5249   -7.2840   18.7648 H   0  0  0  0  0  0  0  0  0  0  0  0
   29.3454   -6.3168   15.8463 H   0  0  0  0  0  0  0  0  0  0  0  0
   30.5039   -8.8748   17.0743 H   0  0  0  0  0  0  0  0  0  0  0  0
   28.8846   -8.4485   15.2552 H   0  0  0  0  0  0  0  0  0  0  0  0
   32.6368   -8.2939   16.6108 H   0  0  0  0  0  0  0  0  0  0  0  0
   32.2160   -8.0463   14.8624 H   0  0  0  0  0  0  0  0  0  0  0  0
   31.7648   -5.7602   15.1392 H   0  0  0  0  0  0  0  0  0  0  0  0
   35.6018   -3.4781   16.0573 H   0  0  0  0  0  0  0  0  0  0  0  0
   33.5963   -7.5316   17.8555 H   0  0  0  0  0  0  0  0  0  0  0  0
   35.3752   -7.7628   19.4679 H   0  0  0  0  0  0  0  0  0  0  0  0
   36.6166   -6.4565   19.6049 H   0  0  0  0  0  0  0  0  0  0  0  0
   36.7680   -7.7544   18.3494 H   0  0  0  0  0  0  0  0  0  0  0  0
  2  1  1  1
  2  3  2  0
  2  4  1  0
  5  4  1  0
  5  6  1  0
  6  7  1  0
  7  8  1  0
  5  9  1  0
  9 10  1  0
  9 11  1  0
 11 12  1  0
  7 13  1  0
 11 13  1  0
 13 14  1  0
  2 15  1  0
 16 15  1  1
 16 17  1  0
 16 18  2  0
 16 19  1  0
 19 20  1  0
 21 20  1  0
 21 22  1  0
 21 23  1  0
 23 24  1  0
 23 25  1  0
 22 26  1  0
 25 26  1  0
 26 27  1  0
 27 28  1  0
 28 29  2  0
 28 30  1  0
 27 31  1  0
 31 32  2  0
 32 33  1  0
 30 34  1  0
 32 34  1  0
 34 35  2  0
  1 36  1  0
  5 37  1  6
  7 38  1  6
  8 39  1  1
  8 40  1  0
  8 41  1  0
  9 42  1  1
 10 43  1  0
 11 44  1  6
 12 45  1  0
 12 46  1  0
 13 47  1  1
 14 48  1  0
 17 49  1  0
 20 50  1  1
 20 51  1  0
 21 52  1  6
 23 53  1  1
 24 54  1  0
 25 55  1  1
 25 56  1  0
 26 57  1  6
 30 58  1  0
 31 59  1  0
 33 60  1  1
 33 61  1  0
 33 62  1  0
M  END
