7XEK_9YX_A_501
     RDKit          3D

 22 23  0  0  0  0  0  0  0  0999 V2000
   30.2847  -36.7346  -38.2220 O   0  0  0  0  0  0  0  0  0  0  0  0
   31.1884  -35.6251  -38.6593 P   0  0  2  0  0  5  0  0  0  0  0  0
   30.3814  -34.7006  -39.8575 O   0  0  0  0  0  0  0  0  0  0  0  0
   32.5354  -36.3037  -39.4743 O   0  0  0  0  0  0  0  0  0  0  0  0
   31.7247  -34.6480  -37.4243 O   0  0  0  0  0  0  0  0  0  0  0  0
   32.5699  -33.6111  -37.7796 C   0  0  0  0  0  0  0  0  0  0  0  0
   33.0048  -32.8730  -36.6012 C   0  0  0  0  0  0  0  0  0  0  0  0
   32.1685  -32.1265  -35.7826 C   0  0  0  0  0  0  0  0  0  0  0  0
   32.5801  -31.4658  -34.7106 N   0  0  0  0  0  0  0  0  0  0  0  0
   33.8506  -31.4698  -34.3332 C   0  0  0  0  0  0  0  0  0  0  0  0
   34.2858  -30.7250  -33.1224 C   0  0  0  0  0  0  0  0  0  0  0  0
   34.7634  -32.1879  -35.0867 C   0  0  0  0  0  0  0  0  0  0  0  0
   36.0700  -32.1617  -34.6546 O   0  0  0  0  0  0  0  0  0  0  0  0
   34.3434  -32.8932  -36.2239 C   0  0  0  0  0  0  0  0  0  0  0  0
   35.2894  -33.6513  -36.9828 C   0  0  1  0  0  0  0  0  0  0  0  0
   34.8122  -34.2179  -38.2396 N   0  0  0  0  0  0  0  0  0  0  0  0
   36.7477  -32.7644  -37.5961 S   0  0  0  0  0  0  0  0  0  0  0  0
   37.0147  -33.8563  -39.0552 C   0  0  0  0  0  0  0  0  0  0  0  0
   35.9606  -34.9047  -38.7931 C   0  0  2  0  0  0  0  0  0  0  0  0
   35.5961  -35.5783  -40.0365 C   0  0  0  0  0  0  0  0  0  0  0  0
   36.5940  -36.0752  -40.8800 O   0  0  0  0  0  0  0  0  0  0  0  0
   34.4202  -35.7448  -40.4023 O   0  0  0  0  0  0  0  0  0  0  0  0
  1  2  2  0
  2  3  1  6
  2  4  1  0
  2  5  1  0
  6  5  1  1
  6  7  1  0
  7  8  2  0
  8  9  1  0
  9 10  2  0
 11 10  1  6
 10 12  1  0
 12 13  1  0
  7 14  1  0
 12 14  2  0
 15 14  1  6
 15 16  1  0
 15 17  1  0
 18 17  1  1
 18 19  1  0
 16 19  1  0
 19 20  1  6
 20 21  1  0
 20 22  2  0
M  END
$$$$
