7OMX_CNA_AAA_301
     RDKit          3D

 44 48  0  0  0  0  0  0  0  0999 V2000
    7.6202  -12.9719  -10.2224 P   0  0  2  0  0  5  0  0  0  0  0  0
    7.8466  -13.4174   -8.6005 O   0  0  0  0  0  0  0  0  0  0  0  0
    6.2065  -12.4360  -10.4574 O   0  0  0  0  0  0  0  0  0  0  0  0
    7.6869  -14.4145  -11.1297 O   0  0  0  0  0  0  0  0  0  0  0  0
    6.5994  -15.2352  -10.8250 C   0  0  0  0  0  0  0  0  0  0  0  0
    6.7046  -16.4742  -11.6739 C   0  0  1  0  0  0  0  0  0  0  0  0
    7.2455  -16.2018  -12.9293 O   0  0  0  0  0  0  0  0  0  0  0  0
    7.7416  -17.4420  -11.1432 C   0  0  1  0  0  0  0  0  0  0  0  0
    7.3011  -18.1551  -10.0474 O   0  0  0  0  0  0  0  0  0  0  0  0
    7.8191  -18.3798  -12.3565 C   0  0  1  0  0  0  0  0  0  0  0  0
    6.8234  -19.3458  -12.1334 O   0  0  0  0  0  0  0  0  0  0  0  0
    7.4745  -17.4694  -13.4653 C   0  0  2  0  0  0  0  0  0  0  0  0
    8.3727  -17.3589  -14.5547 N   0  0  0  0  0  0  0  0  0  0  0  0
    9.5942  -16.7532  -14.5668 C   0  0  0  0  0  0  0  0  0  0  0  0
   10.1308  -16.8702  -15.8083 N   0  0  0  0  0  0  0  0  0  0  0  0
    9.2706  -17.5427  -16.5936 C   0  0  0  0  0  0  0  0  0  0  0  0
    9.3607  -17.9087  -17.9195 C   0  0  0  0  0  0  0  0  0  0  0  0
   10.4898  -17.5954  -18.7262 N   0  0  0  0  0  0  0  0  0  0  0  0
    8.2900  -18.5957  -18.4128 N   0  0  0  0  0  0  0  0  0  0  0  0
    7.2345  -18.8754  -17.6159 C   0  0  0  0  0  0  0  0  0  0  0  0
    7.1755  -18.5044  -16.3238 N   0  0  0  0  0  0  0  0  0  0  0  0
    8.1853  -17.8370  -15.7959 C   0  0  0  0  0  0  0  0  0  0  0  0
    8.7823  -11.8707  -10.7152 O   0  0  0  0  0  0  0  0  0  0  0  0
    8.6735  -11.4724  -12.3458 P   0  0  1  0  0  5  0  0  0  0  0  0
    7.6960  -10.3197  -12.5434 O   0  0  0  0  0  0  0  0  0  0  0  0
   10.1530  -11.0318  -13.0082 O   0  0  0  0  0  0  0  0  0  0  0  0
    8.0627  -12.7557  -13.2720 O   0  0  0  0  0  0  0  0  0  0  0  0
    7.5816  -12.3045  -14.4890 C   0  0  0  0  0  0  0  0  0  0  0  0
    8.5058  -12.7364  -15.5777 C   0  0  1  0  0  0  0  0  0  0  0  0
    9.9657  -12.5893  -15.2056 C   0  0  0  0  0  0  0  0  0  0  0  0
    8.4352  -14.2475  -15.8292 C   0  0  1  0  0  0  0  0  0  0  0  0
    7.2260  -14.4644  -16.4961 O   0  0  0  0  0  0  0  0  0  0  0  0
    9.6334  -14.4449  -16.7131 C   0  0  1  0  0  0  0  0  0  0  0  0
    9.2922  -13.8523  -17.9508 O   0  0  0  0  0  0  0  0  0  0  0  0
   10.6844  -13.6120  -16.0826 C   0  0  2  0  0  0  0  0  0  0  0  0
   11.6666  -14.3165  -15.3128 N   0  0  0  0  0  0  0  0  0  0  0  0
   11.7536  -14.0267  -13.9957 C   0  0  0  0  0  0  0  0  0  0  0  0
   12.6652  -14.6505  -13.1746 C   0  0  0  0  0  0  0  0  0  0  0  0
   12.6993  -14.2827  -11.7570 C   0  0  0  0  0  0  0  0  0  0  0  0
   13.7298  -14.5036  -11.0652 O   0  0  0  0  0  0  0  0  0  0  0  0
   11.5837  -13.6728  -11.1275 N   0  0  0  0  0  0  0  0  0  0  0  0
   13.5351  -15.5995  -13.6459 C   0  0  0  0  0  0  0  0  0  0  0  0
   13.4434  -15.8976  -15.0077 C   0  0  0  0  0  0  0  0  0  0  0  0
   12.5072  -15.2388  -15.7862 C   0  0  0  0  0  0  0  0  0  0  0  0
  1  2  1  1
  1  3  2  0
  1  4  1  0
  5  4  1  6
  6  5  1  0
  6  7  1  6
  6  8  1  0
  8  9  1  1
  8 10  1  0
 10 11  1  1
 10 12  1  0
  7 12  1  0
 12 13  1  6
 13 14  1  0
 14 15  2  0
 15 16  1  0
 16 17  2  0
 17 18  1  0
 17 19  1  0
 19 20  2  0
 20 21  1  0
 21 22  2  0
 13 22  1  0
 16 22  1  0
  1 23  1  0
 24 23  1  0
 24 25  2  0
 24 26  1  6
 24 27  1  0
 28 27  1  1
 29 28  1  1
 29 30  1  0
 29 31  1  0
 31 32  1  6
 31 33  1  0
 33 34  1  6
 33 35  1  0
 30 35  1  1
 35 36  1  1
 36 37  2  0
 37 38  1  0
 38 39  1  0
 39 40  2  0
 39 41  1  0
 38 42  2  0
 42 43  1  0
 36 44  1  0
 43 44  2  0
M  CHG  1  36   1
M  END
$$$$
