
     RDKit          3D

 26 28  0  0  0  0  0  0  0  0999 V2000
  -48.1326   17.3946    5.0408 N   0  0  0  0  0  0  0  0  0  0  0  0
  -48.3919   17.8024    6.4367 C   0  0  1  0  0  0  0  0  0  0  0  0
  -47.1010   18.0023    7.2454 C   0  0  0  0  0  0  0  0  0  0  0  0
  -45.8274   18.2096    6.4261 C   0  0  0  0  0  0  0  0  0  0  0  0
  -44.3232   17.9331    7.4214 S   0  0  0  0  0  0  0  0  0  0  0  0
  -49.1642   19.1272    6.4389 C   0  0  0  0  0  0  0  0  0  0  0  0
  -49.5902   19.7280    5.4637 O   0  0  0  0  0  0  0  0  0  0  0  0
  -49.3044   19.6518    7.6738 O   0  0  0  0  0  0  0  0  0  0  0  0
  -44.0110   16.1740    7.0225 C   0  0  0  0  0  0  0  0  0  0  0  0
  -44.6661   15.1591    7.9719 C   0  0  1  0  0  0  0  0  0  0  0  0
  -44.4547   13.8102    7.4938 O   0  0  0  0  0  0  0  0  0  0  0  0
  -44.1842   15.2151    9.4210 C   0  0  1  0  0  0  0  0  0  0  0  0
  -45.3044   15.0091   10.3000 O   0  0  0  0  0  0  0  0  0  0  0  0
  -43.2556   14.0204    9.5408 C   0  0  1  0  0  0  0  0  0  0  0  0
  -43.2091   13.5856   10.9038 O   0  0  0  0  0  0  0  0  0  0  0  0
  -43.9128   13.0237    8.5801 C   0  0  2  0  0  0  0  0  0  0  0  0
  -43.0120   12.0266    8.0293 N   0  0  0  0  0  0  0  0  0  0  0  0
  -41.6452   12.1207    7.9528 C   0  0  0  0  0  0  0  0  0  0  0  0
  -41.1032   11.0539    7.4053 N   0  0  0  0  0  0  0  0  0  0  0  0
  -42.1737   10.2625    7.0452 C   0  0  0  0  0  0  0  0  0  0  0  0
  -42.2562    9.0157    6.4007 C   0  0  0  0  0  0  0  0  0  0  0  0
  -41.1439    8.3065    5.9711 N   0  0  0  0  0  0  0  0  0  0  0  0
  -43.4784    8.4722    6.1986 N   0  0  0  0  0  0  0  0  0  0  0  0
  -44.5628    9.1652    6.6037 C   0  0  0  0  0  0  0  0  0  0  0  0
  -44.6108   10.3649    7.2281 N   0  0  0  0  0  0  0  0  0  0  0  0
  -43.3708   10.8529    7.4189 C   0  0  0  0  0  0  0  0  0  0  0  0
  2  1  1  6
  2  3  1  0
  3  4  1  0
  4  5  1  0
  2  6  1  0
  6  7  2  0
  6  8  1  0
  5  9  1  0
 10  9  1  6
 10 11  1  0
 10 12  1  0
 12 13  1  1
 12 14  1  0
 14 15  1  1
 11 16  1  0
 14 16  1  0
 16 17  1  6
 17 18  4  0
 18 19  4  0
 19 20  4  0
 20 21  4  0
 21 22  1  0
 21 23  4  0
 23 24  4  0
 24 25  4  0
 17 26  4  0
 20 26  4  0
 25 26  4  0
M  END
