7Q27_8KC_A_707
     RDKit          3D

 68 70  0  0  0  0  0  0  0  0999 V2000
  -13.3117   -9.2382   19.2340 C   0  0  1  0  0  0  0  0  0  0  0  0
  -11.9492   -9.0005   19.8842 C   0  0  1  0  0  0  0  0  0  0  0  0
  -11.6955   -7.5195   20.2043 C   0  0  2  0  0  0  0  0  0  0  0  0
  -12.8323   -6.6056   19.7119 C   0  0  2  0  0  0  0  0  0  0  0  0
  -14.1492   -6.8364   20.4880 C   0  0  1  0  0  0  0  0  0  0  0  0
  -15.2301   -8.4335   27.1494 C   0  0  0  0  0  0  0  0  0  0  0  0
  -13.8918   -8.7856   26.9658 C   0  0  0  0  0  0  0  0  0  0  0  0
  -13.1174   -9.0433   28.1115 C   0  0  0  0  0  0  0  0  0  0  0  0
  -13.6883   -8.9410   29.3992 C   0  0  0  0  0  0  0  0  0  0  0  0
  -15.0382   -8.5779   29.5534 C   0  0  0  0  0  0  0  0  0  0  0  0
  -13.8991   -6.7435   21.9742 C   0  0  0  0  0  0  0  0  0  0  0  0
  -14.1616   -4.7623   18.0592 C   0  0  2  0  0  0  0  0  0  0  0  0
  -12.7544   -5.1093   18.5827 C   0  0  1  0  0  0  0  0  0  0  0  0
  -11.8707   -3.8941   18.7176 C   0  0  0  0  0  0  0  0  0  0  0  0
  -12.0826   -2.7659   17.9066 C   0  0  0  0  0  0  0  0  0  0  0  0
  -11.2459   -1.6513   18.0168 C   0  0  0  0  0  0  0  0  0  0  0  0
  -13.7683   -8.6750   24.0932 C   0  0  0  0  0  0  0  0  0  0  0  0
  -14.8046   -7.5879   24.1945 C   0  0  2  0  0  0  0  0  0  0  0  0
  -16.1432   -8.1326   24.7394 C   0  0  2  0  0  0  0  0  0  0  0  0
  -16.2298   -8.1295   26.2438 C   0  0  0  0  0  0  0  0  0  0  0  0
  -17.3561   -7.8456   27.0122 C   0  0  0  0  0  0  0  0  0  0  0  0
  -15.7824   -8.3299   28.4007 C   0  0  0  0  0  0  0  0  0  0  0  0
  -15.2871   -5.6589   18.6339 C   0  0  1  0  0  0  0  0  0  0  0  0
  -15.2061   -7.0092   17.9820 C   0  0  0  0  0  0  0  0  0  0  0  0
  -10.1964   -1.6517   18.9393 C   0  0  0  0  0  0  0  0  0  0  0  0
   -9.9837   -2.7660   19.7555 C   0  0  0  0  0  0  0  0  0  0  0  0
  -10.8171   -3.8834   19.6475 C   0  0  0  0  0  0  0  0  0  0  0  0
  -17.0755   -7.9720   28.3288 N   0  0  0  0  0  0  0  0  0  0  0  0
  -14.9812   -6.9152   22.9021 N   0  0  0  0  0  0  0  0  0  0  0  0
  -15.1678   -5.8385   20.0998 N   0  0  0  0  0  0  0  0  0  0  0  0
  -13.9014   -9.6106   23.2583 O   0  0  0  0  0  0  0  0  0  0  0  0
  -12.6789   -8.6697   24.9587 O   0  0  0  0  0  0  0  0  0  0  0  0
  -15.9222   -7.2698   16.9779 O   0  0  0  0  0  0  0  0  0  0  0  0
  -14.3112   -7.9619   18.4609 O   0  0  0  0  0  0  0  0  0  0  0  0
  -12.7343   -6.5013   22.3939 O   0  0  0  0  0  0  0  0  0  0  0  0
  -13.2470  -10.0521   18.4814 H   0  0  0  0  0  0  0  0  0  0  0  0
  -14.0450   -9.5350   20.0132 H   0  0  0  0  0  0  0  0  0  0  0  0
  -13.6821   -8.3127   18.7468 H   0  0  0  0  0  0  0  0  0  0  0  0
  -11.8653   -9.6124   20.8086 H   0  0  0  0  0  0  0  0  0  0  0  0
  -11.1617   -9.3479   19.1809 H   0  0  0  0  0  0  0  0  0  0  0  0
  -10.7280   -7.2057   19.7563 H   0  0  0  0  0  0  0  0  0  0  0  0
  -11.6056   -7.4179   21.3078 H   0  0  0  0  0  0  0  0  0  0  0  0
  -12.9989   -6.8169   18.6353 H   0  0  0  0  0  0  0  0  0  0  0  0
  -12.5320   -5.5404   19.8042 H   0  0  0  0  0  0  0  0  0  0  0  0
  -14.5250   -7.8600   20.2650 H   0  0  0  0  0  0  0  0  0  0  0  0
  -13.4574   -8.8597   25.9778 H   0  0  0  0  0  0  0  0  0  0  0  0
  -12.0766   -9.3206   28.0050 H   0  0  0  0  0  0  0  0  0  0  0  0
  -13.0829   -9.1417   30.2735 H   0  0  0  0  0  0  0  0  0  0  0  0
  -15.4830   -8.4940   30.5362 H   0  0  0  0  0  0  0  0  0  0  0  0
  -14.1578   -4.8404   16.9496 H   0  0  0  0  0  0  0  0  0  0  0  0
  -14.3742   -3.6980   18.3047 H   0  0  0  0  0  0  0  0  0  0  0  0
  -12.8248   -5.6525   19.5486 H   0  0  0  0  0  0  0  0  0  0  0  0
  -12.2774   -5.8131   17.8666 H   0  0  0  0  0  0  0  0  0  0  0  0
  -12.8951   -2.7474   17.1912 H   0  0  0  0  0  0  0  0  0  0  0  0
  -11.4117   -0.7865   17.3875 H   0  0  0  0  0  0  0  0  0  0  0  0
  -14.4404   -6.8344   24.9272 H   0  0  0  0  0  0  0  0  0  0  0  0
  -16.2870   -9.1720   24.3723 H   0  0  0  0  0  0  0  0  0  0  0  0
  -16.9800   -7.5300   24.3245 H   0  0  0  0  0  0  0  0  0  0  0  0
  -18.3270   -7.5599   26.6296 H   0  0  0  0  0  0  0  0  0  0  0  0
  -16.2655   -5.2063   18.3545 H   0  0  0  0  0  0  0  0  0  0  0  0
   -9.5499   -0.7878   19.0233 H   0  0  0  0  0  0  0  0  0  0  0  0
   -9.1723   -2.7643   20.4716 H   0  0  0  0  0  0  0  0  0  0  0  0
  -10.6414   -4.7405   20.2855 H   0  0  0  0  0  0  0  0  0  0  0  0
  -17.7335   -7.8207   29.1251 H   0  0  0  0  0  0  0  0  0  0  0  0
  -15.9116   -6.5182   22.6450 H   0  0  0  0  0  0  0  0  0  0  0  0
  -16.0880   -6.1160   20.5134 H   0  0  0  0  0  0  0  0  0  0  0  0
  -12.7213   -9.1503   25.8492 H   0  0  0  0  0  0  0  0  0  0  0  0
  -14.4230   -8.3614   19.3849 H   0  0  0  0  0  0  0  0  0  0  0  0
  1  2  1  0
  2  3  1  0
  3  4  1  0
  5  4  1  0
  6  7  2  0
  7  8  1  0
  8  9  2  0
  9 10  1  0
  5 11  1  0
 12 13  1  0
 13 14  1  0
 14 15  2  0
 15 16  1  0
 17 18  1  0
 18 19  1  0
  6 20  1  0
 19 20  1  0
 20 21  2  0
 10 22  2  0
  6 22  1  0
 23 12  1  0
 23 24  1  0
 16 25  2  0
 25 26  1  0
 26 27  2  0
 14 27  1  0
 22 28  1  0
 21 28  1  0
 11 29  1  0
 18 29  1  0
  5 30  1  0
 23 30  1  0
 17 31  2  0
 17 32  1  0
 24 33  2  0
 24 34  1  0
 11 35  2  0
  1 36  1  6
  1 37  1  0
  1 38  1  0
  2 39  1  1
  2 40  1  0
  3 41  1  6
  3 42  1  0
  4 43  1  6
  4 44  1  0
  5 45  1  1
  7 46  1  0
  8 47  1  0
  9 48  1  0
 10 49  1  0
 12 50  1  6
 12 51  1  0
 13 52  1  1
 13 53  1  0
 15 54  1  0
 16 55  1  0
 18 56  1  1
 19 57  1  6
 19 58  1  0
 21 59  1  0
 23 60  1  1
 25 61  1  0
 26 62  1  0
 27 63  1  0
 28 64  1  0
 29 65  1  0
 30 66  1  0
 32 67  1  0
 34 68  1  0
M  END
