7XBV_APC_A_601
     RDKit          3D

 31 33  0  0  0  0  0  0  0  0999 V2000
  -11.6845   13.4980    2.2058 P   0  0  1  0  0  5  0  0  0  0  0  0
  -11.1115   12.1040    2.3147 O   0  0  0  0  0  0  0  0  0  0  0  0
  -13.3017   13.5285    2.6578 O   0  0  0  0  0  0  0  0  0  0  0  0
  -10.8127   14.4849    3.2654 O   0  0  0  0  0  0  0  0  0  0  0  0
  -12.0643   13.0449   -0.5096 P   0  0  1  0  0  5  0  0  0  0  0  0
  -11.6725   13.5559   -1.8862 O   0  0  0  0  0  0  0  0  0  0  0  0
  -11.3432   11.5144   -0.3673 O   0  0  0  0  0  0  0  0  0  0  0  0
  -11.4887   14.1133    0.6486 O   0  0  0  0  0  0  0  0  0  0  0  0
  -14.4534   11.6810   -1.6190 P   0  0  1  0  0  5  0  0  0  0  0  0
  -13.2482   11.1116   -2.3519 O   0  0  0  0  0  0  0  0  0  0  0  0
  -15.2623   10.4618   -0.7502 O   0  0  0  0  0  0  0  0  0  0  0  0
  -13.8574   12.9449   -0.4533 C   0  0  0  0  0  0  0  0  0  0  0  0
  -15.4888   12.3710   -2.7352 O   0  0  0  0  0  0  0  0  0  0  0  0
  -16.7805   11.8056   -2.6285 C   0  0  0  0  0  0  0  0  0  0  0  0
  -17.6482   12.9072   -2.0777 C   0  0  1  0  0  0  0  0  0  0  0  0
  -17.2090   13.4092   -0.8526 O   0  0  0  0  0  0  0  0  0  0  0  0
  -17.5845   14.1406   -2.9582 C   0  0  1  0  0  0  0  0  0  0  0  0
  -18.5703   13.9917   -3.9198 O   0  0  0  0  0  0  0  0  0  0  0  0
  -17.8292   15.2497   -1.9943 C   0  0  1  0  0  0  0  0  0  0  0  0
  -18.9389   16.0174   -2.2948 O   0  0  0  0  0  0  0  0  0  0  0  0
  -18.0667   14.4897   -0.6941 C   0  0  2  0  0  0  0  0  0  0  0  0
  -17.7262   15.2992    0.4560 N   0  0  0  0  0  0  0  0  0  0  0  0
  -16.5062   15.5546    0.9465 C   0  0  0  0  0  0  0  0  0  0  0  0
  -16.6468   16.3559    2.0302 N   0  0  0  0  0  0  0  0  0  0  0  0
  -17.9554   16.5895    2.2006 C   0  0  0  0  0  0  0  0  0  0  0  0
  -18.6782   17.3311    3.1354 C   0  0  0  0  0  0  0  0  0  0  0  0
  -18.0225   18.0388    4.1820 N   0  0  0  0  0  0  0  0  0  0  0  0
  -20.0370   17.3877    3.0572 N   0  0  0  0  0  0  0  0  0  0  0  0
  -20.7054   16.7326    2.0814 C   0  0  0  0  0  0  0  0  0  0  0  0
  -20.0056   16.0178    1.1807 N   0  0  0  0  0  0  0  0  0  0  0  0
  -18.6540   15.9228    1.2054 C   0  0  0  0  0  0  0  0  0  0  0  0
  1  2  2  0
  1  3  1  1
  1  4  1  0
  5  6  2  0
  5  7  1  1
  1  8  1  0
  5  8  1  0
  9 10  2  0
  9 11  1  1
 12  5  1  6
  9 12  1  0
  9 13  1  0
 14 13  1  6
 15 14  1  0
 15 16  1  1
 15 17  1  0
 17 18  1  6
 17 19  1  0
 19 20  1  6
 16 21  1  0
 19 21  1  0
 21 22  1  1
 22 23  1  0
 23 24  2  0
 24 25  1  0
 25 26  2  0
 26 27  1  0
 26 28  1  0
 28 29  2  0
 29 30  1  0
 22 31  1  0
 25 31  1  0
 30 31  2  0
M  END
$$$$
