7BTT_F8R_A_1501
     RDKit          3D

 40 44  0  0  0  0  0  0  0  0999 V2000
    7.1212   18.7497    9.2891 N   0  0  0  0  0  0  0  0  0  0  0  0
    6.2690   18.0370   10.0189 C   0  0  0  0  0  0  0  0  0  0  0  0
    8.0634   16.4582   10.9370 C   0  0  0  0  0  0  0  0  0  0  0  0
   10.2644   16.2698   10.0339 C   0  0  0  0  0  0  0  0  0  0  0  0
    8.3951   15.5729   11.9615 C   0  0  0  0  0  0  0  0  0  0  0  0
    7.6925   14.1381   13.7134 C   0  0  0  0  0  0  0  0  0  0  0  0
   12.5959   16.1419    9.9554 C   0  0  0  0  0  0  0  0  0  0  0  0
   11.4360   16.9371    7.8022 C   0  0  0  0  0  0  0  0  0  0  0  0
    6.5776   21.6110    4.0548 C   0  0  0  0  0  0  0  0  0  0  0  0
    8.0177   21.2421    4.3736 C   0  0  2  0  0  0  0  0  0  0  0  0
    9.6236   21.4150    6.8077 C   0  0  0  0  0  0  0  0  0  0  0  0
   10.9967   21.4954    6.8261 C   0  0  0  0  0  0  0  0  0  0  0  0
   11.7273   20.7464    7.7249 C   0  0  0  0  0  0  0  0  0  0  0  0
   11.0691   19.9085    8.5955 C   0  0  0  0  0  0  0  0  0  0  0  0
    9.6896   19.8204    8.5848 C   0  0  0  0  0  0  0  0  0  0  0  0
    8.9647   20.5684    7.6871 C   0  0  0  0  0  0  0  0  0  0  0  0
    6.6664   19.6927    8.4728 C   0  0  0  0  0  0  0  0  0  0  0  0
    8.9777   16.8124    9.9673 C   0  0  0  0  0  0  0  0  0  0  0  0
   10.6194   15.4056   11.0472 C   0  0  0  0  0  0  0  0  0  0  0  0
    9.6766   15.0454   12.0212 C   0  0  0  0  0  0  0  0  0  0  0  0
   12.0802   15.0324   10.8236 C   0  0  0  0  0  0  0  0  0  0  0  0
   12.7008   16.7050    6.9871 C   0  0  0  0  0  0  0  0  0  0  0  0
   11.5901   16.3219    4.8930 C   0  0  0  0  0  0  0  0  0  0  0  0
   12.2355   18.5169    5.5512 C   0  0  0  0  0  0  0  0  0  0  0  0
    4.4395   19.1469    9.1367 C   0  0  0  0  0  0  0  0  0  0  0  0
    5.2825   19.9118    8.3742 C   0  0  0  0  0  0  0  0  0  0  0  0
    3.2461   20.5897    7.9158 C   0  0  0  0  0  0  0  0  0  0  0  0
    3.1369   19.5792    8.8457 C   0  0  0  0  0  0  0  0  0  0  0  0
    8.1900   19.8084    4.8632 C   0  0  0  0  0  0  0  0  0  0  0  0
    7.5229   20.5181    7.6408 N   0  0  0  0  0  0  0  0  0  0  0  0
    6.7248   16.9914   10.9185 N   0  0  0  0  0  0  0  0  0  0  0  0
   11.4372   16.4851    9.1630 N   0  0  0  0  0  0  0  0  0  0  0  0
   12.5648   17.1082    5.6089 N   0  0  0  0  0  0  0  0  0  0  0  0
    4.9685   18.2209    9.9576 N   0  0  0  0  0  0  0  0  0  0  0  0
    4.5302   20.7794    7.6444 N   0  0  0  0  0  0  0  0  0  0  0  0
    7.4233   15.2458   12.9038 O   0  0  0  0  0  0  0  0  0  0  0  0
   10.4957   17.4662    7.3464 O   0  0  0  0  0  0  0  0  0  0  0  0
    7.6404   23.1559    6.2305 O   0  0  0  0  0  0  0  0  0  0  0  0
    9.4579   23.4069    4.9806 O   0  0  0  0  0  0  0  0  0  0  0  0
    8.6737   22.3920    5.6127 S   0  0  2  0  0  0  0  0  0  0  0  0
  1  2  2  0
  3  5  2  0
 10  9  1  1
 11 12  2  0
 12 13  1  0
 13 14  2  0
 14 15  1  0
 15 16  2  0
 11 16  1  0
  1 17  1  0
  4 18  2  0
  3 18  1  0
  4 19  1  0
 19 20  2  0
  5 20  1  0
  7 21  1  0
 19 21  1  0
  8 22  1  0
 17 26  2  0
 25 26  1  0
 25 28  1  0
 27 28  2  0
 10 29  1  0
 16 30  1  0
 17 30  1  0
  3 31  1  0
  2 31  1  0
  7 32  1  0
  4 32  1  0
  8 32  1  0
 24 33  1  0
 22 33  1  0
 23 33  1  0
  2 34  1  0
 25 34  2  0
 26 35  1  0
 27 35  1  0
  6 36  1  0
  5 36  1  0
  8 37  2  0
 40 11  1  1
 39 40  2  0
 38 40  2  0
 10 40  1  0
M  END
