6YT6_PKE_B_701
     RDKit          3D

 31 34  0  0  0  0  0  0  0  0999 V2000
   -2.0032   -3.0483   19.2685 C   0  0  0  0  0  0  0  0  0  0  0  0
   -1.4910   -6.1008   22.1517 C   0  0  0  0  0  0  0  0  0  0  0  0
   -1.1585   -7.3265   22.8916 C   0  0  0  0  0  0  0  0  0  0  0  0
   -0.7717   -7.1769   24.2169 C   0  0  0  0  0  0  0  0  0  0  0  0
   -0.3820   -8.2422   24.9964 C   0  0  0  0  0  0  0  0  0  0  0  0
   -0.3924   -9.4796   24.3964 C   0  0  0  0  0  0  0  0  0  0  0  0
   -1.1606   -8.5655   22.3251 C   0  0  0  0  0  0  0  0  0  0  0  0
   -1.6089  -11.6874   20.7997 C   0  0  0  0  0  0  0  0  0  0  0  0
   -3.9051   -2.0952   20.6187 C   0  0  0  0  0  0  0  0  0  0  0  0
   -5.5376   -1.0660   22.0964 C   0  0  0  0  0  0  0  0  0  0  0  0
   -4.8292   -3.2741   22.5342 C   0  0  0  0  0  0  0  0  0  0  0  0
   -1.7850   -4.0615   20.1645 N   0  0  0  0  0  0  0  0  0  0  0  0
   -1.1802   -3.0410   18.2127 N   0  0  0  0  0  0  0  0  0  0  0  0
   -0.1984   -3.9287   17.9913 C   0  0  0  0  0  0  0  0  0  0  0  0
   -0.0008   -4.9340   18.9044 C   0  0  0  0  0  0  0  0  0  0  0  0
   -0.8239   -4.9801   20.0054 C   0  0  0  0  0  0  0  0  0  0  0  0
   -0.6386   -6.0154   20.9703 N   0  0  0  0  0  0  0  0  0  0  0  0
   -3.0349   -2.1283   19.5166 N   0  0  0  0  0  0  0  0  0  0  0  0
   -0.7673   -9.5924   23.1296 N   0  0  0  0  0  0  0  0  0  0  0  0
   -1.5782   -8.8939   21.0275 N   0  0  0  0  0  0  0  0  0  0  0  0
   -0.7306  -10.2208   20.2417 S   0  0  1  0  0  0  0  0  0  0  0  0
   -2.6424   -8.3134   20.2550 C   0  0  0  0  0  0  0  0  0  0  0  0
    0.6639  -10.3387   20.7213 O   0  0  0  0  0  0  0  0  0  0  0  0
   -0.8447  -10.1307   18.7531 O   0  0  0  0  0  0  0  0  0  0  0  0
   -4.0045   -3.2283   21.4412 C   0  0  0  0  0  0  0  0  0  0  0  0
   -4.6928   -1.0342   20.9858 C   0  0  0  0  0  0  0  0  0  0  0  0
   -5.6003   -2.1991   22.8716 C   0  0  0  0  0  0  0  0  0  0  0  0
   -5.0904   -4.3576   23.5349 C   0  0  0  0  0  0  0  0  0  0  0  0
   -6.0750   -3.7817   24.4560 C   0  0  0  0  0  0  0  0  0  0  0  0
   -6.3754   -2.4605   24.0338 N   0  0  0  0  0  0  0  0  0  0  0  0
   -6.5521   -4.3951   25.4502 O   0  0  0  0  0  0  0  0  0  0  0  0
  2  3  1  0
  3  4  2  0
  4  5  1  0
  5  6  2  0
  3  7  1  0
  1 12  2  0
  1 13  1  0
 13 14  2  0
 14 15  1  0
 15 16  2  0
 12 16  1  0
 16 17  1  0
  2 17  1  0
  1 18  1  0
  9 18  1  0
  6 19  1  0
  7 19  2  0
  7 20  1  0
 20 21  1  0
 21  8  1  1
 20 22  1  0
 21 23  2  0
 21 24  2  0
  9 25  2  0
 11 25  1  0
  9 26  1  0
 10 26  2  0
 11 27  2  0
 10 27  1  0
 11 28  1  0
 28 29  1  0
 27 30  1  0
 29 30  1  0
 29 31  2  0
M  END
$$$$
