1S19_MC9_A_500
     RDKit          3D

 30 33  0  0  0  0  0  0  0  0999 V2000
   13.5432   24.3094   44.3078 O   0  0  0  0  0  0  0  0  0  0  0  0
   17.9116   24.6789   43.9851 O   0  0  0  0  0  0  0  0  0  0  0  0
   16.5158   24.4343   43.6039 C   0  0  1  0  0  0  0  0  0  0  0  0
   15.5702   25.6873   43.8727 C   0  0  0  0  0  0  0  0  0  0  0  0
   14.0424   25.3839   43.4540 C   0  0  1  0  0  0  0  0  0  0  0  0
   13.9547   24.9398   41.9237 C   0  0  0  0  0  0  0  0  0  0  0  0
   14.9048   23.7564   41.5401 C   0  0  0  0  0  0  0  0  0  0  0  0
   14.5060   22.6325   40.8289 C   0  0  0  0  0  0  0  0  0  0  0  0
   15.2518   21.4284   40.3713 C   0  0  0  0  0  0  0  0  0  0  0  0
   15.0039   20.6276   39.3621 C   0  0  0  0  0  0  0  0  0  0  0  0
   13.7514   20.8141   38.3596 C   0  0  0  0  0  0  0  0  0  0  0  0
   16.4071   24.0198   42.0712 C   0  0  0  0  0  0  0  0  0  0  0  0
   14.2091   20.9692   36.8109 C   0  0  0  0  0  0  0  0  0  0  0  0
   15.3606   19.8872   36.4617 C   0  0  0  0  0  0  0  0  0  0  0  0
   16.6367   19.6298   37.5366 C   0  0  1  0  0  0  0  0  0  0  0  0
   15.9057   19.4102   38.9992 C   0  0  1  0  0  0  0  0  0  0  0  0
   17.2692   19.0894   39.9409 C   0  0  0  0  0  0  0  0  0  0  0  0
   18.2204   18.3394   38.9016 C   0  0  0  0  0  0  0  0  0  0  0  0
   17.4027   18.2889   37.5543 C   0  0  2  0  0  0  0  0  0  0  0  0
   17.4909   21.1189   37.3931 C   0  0  0  0  0  0  0  0  0  0  0  0
   17.5351   23.9176   41.2616 C   0  0  0  0  0  0  0  0  0  0  0  0
   18.3556   18.0582   36.2072 C   0  0  1  0  0  0  0  0  0  0  0  0
   19.1994   19.2214   35.6042 C   0  0  0  0  0  0  0  0  0  0  0  0
   20.2717   20.5027   33.6287 C   0  0  2  0  0  0  0  0  0  0  0  0
   19.3599   16.9173   36.4773 C   0  0  0  0  0  0  0  0  0  0  0  0
   20.6501   21.6751   34.6722 C   0  0  2  0  0  0  0  0  0  0  0  0
   19.6281   21.4572   35.8115 C   0  0  0  0  0  0  0  0  0  0  0  0
   19.9609   22.7626   34.9777 C   0  0  0  0  0  0  0  0  0  0  0  0
   19.7626   20.9514   32.3441 O   0  0  0  0  0  0  0  0  0  0  0  0
   19.2688   19.5442   34.2818 C   0  0  0  0  0  0  0  0  0  0  0  0
  3  2  1  6
  3  4  1  0
  5  1  1  1
  4  5  1  0
  5  6  1  0
  6  7  1  0
  7  8  2  0
  8  9  1  0
  9 10  2  0
 10 11  1  0
  3 12  1  0
  7 12  1  0
 11 13  1  0
 13 14  1  0
 14 15  1  0
 10 16  1  0
 15 16  1  0
 16 17  1  1
 17 18  1  0
 15 19  1  0
 19 18  1  1
 15 20  1  1
 12 21  2  0
 19 22  1  0
 22 23  1  0
 22 25  1  1
 24 26  1  0
 26 27  1  1
 26 28  1  0
 27 28  1  0
 24 29  1  6
 23 30  2  0
 24 30  1  0
M  END
