7XIJ_EJ3_A_1201
     RDKit          3D

 33 36  0  0  0  0  0  0  0  0999 V2000
   28.5215  -14.3901   -3.0714 C   0  0  0  0  0  0  0  0  0  0  0  0
   29.6779  -14.4205   -2.1158 C   0  0  0  0  0  0  0  0  0  0  0  0
   29.6647  -15.1250   -1.0696 O   0  0  0  0  0  0  0  0  0  0  0  0
   30.8037  -13.5963   -2.4659 N   0  0  0  0  0  0  0  0  0  0  0  0
   30.9659  -12.8059   -3.5386 C   0  0  0  0  0  0  0  0  0  0  0  0
   31.9545  -13.4640   -1.7413 C   0  0  0  0  0  0  0  0  0  0  0  0
   32.3256  -14.0514   -0.5506 C   0  0  0  0  0  0  0  0  0  0  0  0
   33.5675  -13.7432   -0.0234 C   0  0  0  0  0  0  0  0  0  0  0  0
   34.4381  -12.8587   -0.6711 C   0  0  0  0  0  0  0  0  0  0  0  0
   35.6405  -12.6239   -0.0631 O   0  0  0  0  0  0  0  0  0  0  0  0
   36.6317  -11.7208   -0.4160 C   0  0  0  0  0  0  0  0  0  0  0  0
   34.0325  -12.2899   -1.8606 C   0  0  0  0  0  0  0  0  0  0  0  0
   32.8113  -12.5929   -2.3787 C   0  0  0  0  0  0  0  0  0  0  0  0
   32.1849  -12.1771   -3.5161 C   0  0  0  0  0  0  0  0  0  0  0  0
   32.6248  -11.2604   -4.5629 C   0  0  0  0  0  0  0  0  0  0  0  0
   31.9824  -11.2934   -5.6448 O   0  0  0  0  0  0  0  0  0  0  0  0
   33.7212  -10.3745   -4.3771 N   0  0  0  0  0  0  0  0  0  0  0  0
   33.8021   -9.2136   -5.1974 C   0  0  0  0  0  0  0  0  0  0  0  0
   33.5935   -7.9598   -4.6133 C   0  0  0  0  0  0  0  0  0  0  0  0
   33.3204   -7.8632   -3.2908 F   0  0  0  0  0  0  0  0  0  0  0  0
   34.0732   -9.2504   -6.5449 C   0  0  0  0  0  0  0  0  0  0  0  0
   34.1452   -8.1136   -7.3259 C   0  0  0  0  0  0  0  0  0  0  0  0
   34.4372   -8.2283   -8.7418 C   0  0  0  0  0  0  0  0  0  0  0  0
   34.4300   -7.1074   -9.5578 O   0  0  0  0  0  0  0  0  0  0  0  0
   34.6930   -9.3645   -9.1962 O   0  0  0  0  0  0  0  0  0  0  0  0
   33.9310   -6.8841   -6.7045 C   0  0  0  0  0  0  0  0  0  0  0  0
   33.6537   -6.7945   -5.3448 C   0  0  0  0  0  0  0  0  0  0  0  0
   33.4541   -5.4741   -4.8013 C   0  0  0  0  0  0  0  0  0  0  0  0
   33.6971   -4.2234   -5.2943 C   0  0  0  0  0  0  0  0  0  0  0  0
   32.9152   -5.2289   -3.5212 C   0  0  0  0  0  0  0  0  0  0  0  0
   32.8658   -3.9001   -3.3241 N   0  0  0  0  0  0  0  0  0  0  0  0
   33.3464   -3.2915   -4.4147 N   0  0  0  0  0  0  0  0  0  0  0  0
   33.4574   -1.8536   -4.5790 C   0  0  0  0  0  0  0  0  0  0  0  0
  1  2  1  6
  2  3  2  0
  2  4  1  0
  4  5  1  0
  4  6  1  0
  6  7  2  0
  7  8  1  0
  8  9  2  0
  9 10  1  0
 11 10  1  1
  9 12  1  0
  6 13  1  0
 12 13  2  0
  5 14  2  0
 13 14  1  0
 14 15  1  0
 15 16  2  0
 15 17  1  0
 17 18  1  0
 18 19  2  0
 19 20  1  0
 18 21  1  0
 21 22  2  0
 22 23  1  0
 23 24  1  0
 23 25  2  0
 22 26  1  0
 26 27  2  0
 19 27  1  0
 27 28  1  0
 28 29  2  0
 28 30  1  0
 30 31  2  0
 31 32  1  0
 29 32  1  0
 33 32  1  1
M  END
$$$$
