7OSO_0V1_A_504
     RDKit          3D

  7  6  0  0  0  0  0  0  0  0999 V2000
    7.9100   -5.9607   23.2881 C   0  0  0  0  0  0  0  0  0  0  0  0
    7.2410   -5.6587   22.0157 C   0  0  2  0  0  0  0  0  0  0  0  0
    7.8624   -5.9437   20.7430 C   0  0  0  0  0  0  0  0  0  0  0  0
    7.0544   -6.0632   19.5080 C   0  0  0  0  0  0  0  0  0  0  0  0
    7.8981   -6.2333   18.3823 O   0  0  0  0  0  0  0  0  0  0  0  0
    6.8222   -4.3232   22.0506 O   0  0  0  0  0  0  0  0  0  0  0  0
    9.1636   -5.3513   23.3969 O   0  0  0  0  0  0  0  0  0  0  0  0
  1  2  1  0
  2  3  1  0
  3  4  1  0
  4  5  1  0
  2  6  1  6
  1  7  1  0
M  END
$$$$
