7ZYS_KNR_B_201
     RDKit          3D

 93 94  0  0  0  0  0  0  0  0999 V2000
   -8.2244   -2.0483   -4.5284 N   0  0  0  0  0  0  0  0  0  0  0  0
   -4.0153    6.0157    0.3087 C   0  0  0  0  0  0  0  0  0  0  0  0
   -3.5304    6.4979    1.6547 C   0  0  1  0  0  0  0  0  0  0  0  0
   -9.9875   -0.6775   -3.7892 N   0  0  0  0  0  0  0  0  0  0  0  0
   -4.7068    6.6387    2.6417 C   0  0  0  0  0  0  0  0  0  0  0  0
   -3.3589   -4.3249   -3.5623 O   0  0  0  0  0  0  0  0  0  0  0  0
   -6.2202    0.0435   -3.8131 C   0  0  2  0  0  0  0  0  0  0  0  0
   -4.8675    2.6342   -1.2362 C   0  0  0  0  0  0  0  0  0  0  0  0
   -4.9124    4.1627   -1.1564 C   0  0  0  0  0  0  0  0  0  0  0  0
   -4.3576    4.6386    0.1107 N   0  0  0  0  0  0  0  0  0  0  0  0
   -5.5752    2.1299   -2.4993 C   0  0  0  0  0  0  0  0  0  0  0  0
   -4.1231    6.8377   -0.6409 O   0  0  0  0  0  0  0  0  0  0  0  0
   -5.3471    0.6261   -2.6858 C   0  0  0  0  0  0  0  0  0  0  0  0
   -0.9694    5.9949    0.4877 O   0  0  0  0  0  0  0  0  0  0  0  0
   -8.5931   -0.9523   -3.9366 C   0  0  0  0  0  0  0  0  0  0  0  0
   -2.5241    5.5673    2.1847 N   0  0  0  0  0  0  0  0  0  0  0  0
   -7.6327   -0.0189   -3.4042 N   0  0  0  0  0  0  0  0  0  0  0  0
   -5.7074   -1.3312   -4.1594 C   0  0  0  0  0  0  0  0  0  0  0  0
   -6.2241   -2.3541   -3.6327 O   0  0  0  0  0  0  0  0  0  0  0  0
   -5.8315    5.6235    2.3637 C   0  0  0  0  0  0  0  0  0  0  0  0
   -5.3046    4.3015    1.7854 C   0  0  0  0  0  0  0  0  0  0  0  0
   -4.7637    4.4503    0.3652 C   0  0  0  0  0  0  0  0  0  0  0  0
   -1.2913    5.3058    1.4952 C   0  0  0  0  0  0  0  0  0  0  0  0
   -0.3402    4.2515    1.9926 C   0  0  1  0  0  0  0  0  0  0  0  0
    0.4328    4.7735    3.2205 C   0  0  0  0  0  0  0  0  0  0  0  0
   -0.4699    5.1391    4.4125 C   0  0  0  0  0  0  0  0  0  0  0  0
    0.0449    6.3478    5.2102 C   0  0  0  0  0  0  0  0  0  0  0  0
   -0.1055    6.1552    6.7305 C   0  0  0  0  0  0  0  0  0  0  0  0
   -1.1755    1.9302    1.3917 C   0  0  0  0  0  0  0  0  0  0  0  0
   -1.3845    0.5364    1.9121 C   0  0  0  0  0  0  0  0  0  0  0  0
   -2.2017   -0.3071    0.9691 C   0  0  0  0  0  0  0  0  0  0  0  0
   -1.5778   -0.9815   -0.0958 C   0  0  0  0  0  0  0  0  0  0  0  0
   -2.3249   -1.8010   -0.9595 C   0  0  0  0  0  0  0  0  0  0  0  0
   -1.6471   -2.5530   -2.0749 C   0  0  0  0  0  0  0  0  0  0  0  0
   -3.1836   -3.1603   -4.0123 C   0  0  0  0  0  0  0  0  0  0  0  0
   -3.9046   -2.7380   -5.2563 C   0  0  0  0  0  0  0  0  0  0  0  0
   -3.7022   -1.9551   -0.7349 C   0  0  0  0  0  0  0  0  0  0  0  0
   -4.3300   -1.2704    0.3102 C   0  0  0  0  0  0  0  0  0  0  0  0
   -3.5859   -0.4386    1.1523 C   0  0  0  0  0  0  0  0  0  0  0  0
   -0.3993    4.7703    7.0911 N   0  0  0  0  0  0  0  0  0  0  0  0
   -1.0707    3.0198    2.3153 N   0  0  0  0  0  0  0  0  0  0  0  0
   -2.2858   -2.2515   -3.3558 N   0  0  0  0  0  0  0  0  0  0  0  0
   -4.5838   -1.4646   -5.0399 N   0  0  0  0  0  0  0  0  0  0  0  0
   -0.9982    2.1276    0.1585 O   0  0  0  0  0  0  0  0  0  0  0  0
   -7.2293   -2.3207   -4.6788 H   0  0  0  0  0  0  0  0  0  0  0  0
   -3.0502    7.4969    1.5405 H   0  0  0  0  0  0  0  0  0  0  0  0
  -10.7031   -1.3760   -4.0962 H   0  0  0  0  0  0  0  0  0  0  0  0
  -10.3128    0.2017   -3.3222 H   0  0  0  0  0  0  0  0  0  0  0  0
   -4.3393    6.5177    3.6856 H   0  0  0  0  0  0  0  0  0  0  0  0
   -5.1220    7.6653    2.5459 H   0  0  0  0  0  0  0  0  0  0  0  0
   -6.1277    0.7037   -4.7022 H   0  0  0  0  0  0  0  0  0  0  0  0
   -5.3671    2.1973   -0.3438 H   0  0  0  0  0  0  0  0  0  0  0  0
   -3.8028    2.3056   -1.2368 H   0  0  0  0  0  0  0  0  0  0  0  0
   -5.9614    4.5218   -1.2453 H   0  0  0  0  0  0  0  0  0  0  0  0
   -4.3182    4.5762   -2.0019 H   0  0  0  0  0  0  0  0  0  0  0  0
   -4.2119    3.9670    0.8969 H   0  0  0  0  0  0  0  0  0  0  0  0
   -5.1850    2.6691   -3.3912 H   0  0  0  0  0  0  0  0  0  0  0  0
   -6.6624    2.3403   -2.4127 H   0  0  0  0  0  0  0  0  0  0  0  0
   -5.5701    0.0912   -1.7399 H   0  0  0  0  0  0  0  0  0  0  0  0
   -4.2714    0.4675   -2.9200 H   0  0  0  0  0  0  0  0  0  0  0  0
   -2.7152    5.0556    3.0727 H   0  0  0  0  0  0  0  0  0  0  0  0
   -7.9665    0.6242   -2.6505 H   0  0  0  0  0  0  0  0  0  0  0  0
   -6.5421    6.0483    1.6237 H   0  0  0  0  0  0  0  0  0  0  0  0
   -6.3994    5.4203    3.2983 H   0  0  0  0  0  0  0  0  0  0  0  0
   -6.1046    3.5281    1.8059 H   0  0  0  0  0  0  0  0  0  0  0  0
   -4.4765    3.9395    2.4314 H   0  0  0  0  0  0  0  0  0  0  0  0
   -5.5755    4.7276   -0.3398 H   0  0  0  0  0  0  0  0  0  0  0  0
   -3.9603    5.2173    0.3355 H   0  0  0  0  0  0  0  0  0  0  0  0
   -4.3406    3.4799    0.0343 H   0  0  0  0  0  0  0  0  0  0  0  0
    0.3970    4.0452    1.1843 H   0  0  0  0  0  0  0  0  0  0  0  0
    1.0068    5.6835    2.9356 H   0  0  0  0  0  0  0  0  0  0  0  0
    1.1677    4.0045    3.5468 H   0  0  0  0  0  0  0  0  0  0  0  0
   -1.4806    5.3727    4.0131 H   0  0  0  0  0  0  0  0  0  0  0  0
   -0.5737    4.2603    5.0816 H   0  0  0  0  0  0  0  0  0  0  0  0
    1.1121    6.5340    4.9725 H   0  0  0  0  0  0  0  0  0  0  0  0
   -0.5339    7.2498    4.9159 H   0  0  0  0  0  0  0  0  0  0  0  0
    0.8469    6.4576    7.2213 H   0  0  0  0  0  0  0  0  0  0  0  0
   -0.9067    6.8227    7.1206 H   0  0  0  0  0  0  0  0  0  0  0  0
   -1.8782    0.5733    2.9071 H   0  0  0  0  0  0  0  0  0  0  0  0
   -0.3897    0.0693    2.0682 H   0  0  0  0  0  0  0  0  0  0  0  0
   -0.5110   -0.8731   -0.2418 H   0  0  0  0  0  0  0  0  0  0  0  0
   -1.6843   -3.6426   -1.8555 H   0  0  0  0  0  0  0  0  0  0  0  0
   -0.5746   -2.2711   -2.1429 H   0  0  0  0  0  0  0  0  0  0  0  0
   -3.1640   -2.6310   -6.0779 H   0  0  0  0  0  0  0  0  0  0  0  0
   -4.6453   -3.5097   -5.5630 H   0  0  0  0  0  0  0  0  0  0  0  0
   -4.2953   -2.5987   -1.3733 H   0  0  0  0  0  0  0  0  0  0  0  0
   -5.3952   -1.3834    0.4674 H   0  0  0  0  0  0  0  0  0  0  0  0
   -4.0867    0.0887    1.9532 H   0  0  0  0  0  0  0  0  0  0  0  0
    0.2489    4.1301    6.5792 H   0  0  0  0  0  0  0  0  0  0  0  0
   -1.3790    4.5368    6.7988 H   0  0  0  0  0  0  0  0  0  0  0  0
   -1.4630    2.8976    3.2770 H   0  0  0  0  0  0  0  0  0  0  0  0
   -2.1509   -1.2940   -3.7590 H   0  0  0  0  0  0  0  0  0  0  0  0
   -4.2070   -0.6118   -5.5149 H   0  0  0  0  0  0  0  0  0  0  0  0
  2  3  1  0
  3  5  1  0
  8  9  1  0
  2 10  1  0
  9 10  1  0
  8 11  1  0
  2 12  2  0
  7 13  1  0
 11 13  1  0
  1 15  2  3
  4 15  1  0
  3 16  1  0
  7 17  1  0
 15 17  1  0
  7 18  1  0
 18 19  2  0
  5 20  1  0
 20 21  1  0
 21 22  1  0
 16 23  1  0
 14 23  2  0
 23 24  1  0
 24 25  1  0
 25 26  1  0
 26 27  1  0
 27 28  1  0
 29 30  1  0
 30 31  1  0
 31 32  4  0
 32 33  4  0
 33 34  1  0
  6 35  2  0
 35 36  1  0
 33 37  4  0
 37 38  4  0
 31 39  4  0
 38 39  4  0
 28 40  1  0
 29 41  1  0
 24 41  1  0
 34 42  1  0
 35 42  1  0
 36 43  1  0
 18 43  1  0
 29 44  2  0
  1 45  1  0
  3 46  1  1
  4 47  1  0
  4 48  1  0
  5 49  1  0
  5 50  1  0
  7 51  1  1
  8 52  1  0
  8 53  1  0
  9 54  1  0
  9 55  1  0
 10 56  1  0
 11 57  1  0
 11 58  1  0
 13 59  1  0
 13 60  1  0
 16 61  1  0
 17 62  1  0
 20 63  1  0
 20 64  1  0
 21 65  1  0
 21 66  1  0
 22 67  1  0
 22 68  1  0
 22 69  1  0
 24 70  1  1
 25 71  1  0
 25 72  1  0
 26 73  1  0
 26 74  1  0
 27 75  1  0
 27 76  1  0
 28 77  1  0
 28 78  1  0
 30 79  1  0
 30 80  1  0
 32 81  1  0
 34 82  1  0
 34 83  1  0
 36 84  1  0
 36 85  1  0
 37 86  1  0
 38 87  1  0
 39 88  1  0
 40 89  1  0
 40 90  1  0
 41 91  1  0
 42 92  1  0
 43 93  1  0
M  END
