7SED_8VD_A_401
     RDKit          3D

 17 18  0  0  0  0  0  0  0  0999 V2000
   22.6349   33.1519   10.7771 C   0  0  0  0  0  0  0  0  0  0  0  0
   22.9825   28.7929   13.5353 N   0  0  0  0  0  0  0  0  0  0  0  0
   23.5865   31.0733   12.8089 C   0  0  0  0  0  0  0  0  0  0  0  0
   21.3199   30.0562   12.4077 C   0  0  0  0  0  0  0  0  0  0  0  0
   22.2533   31.7946   10.9740 N   0  0  0  0  0  0  0  0  0  0  0  0
   23.2318   35.6598    7.9956 C   0  0  1  0  0  0  0  0  0  0  0  0
   23.1170   35.0485    9.3582 C   0  0  0  0  0  0  0  0  0  0  0  0
   22.7427   33.7230    9.5171 C   0  0  0  0  0  0  0  0  0  0  0  0
   22.1956   31.2712   12.3256 C   0  0  2  0  0  0  0  0  0  0  0  0
   21.5947   29.2057   13.6082 C   0  0  0  0  0  0  0  0  0  0  0  0
   23.7962   29.9484   13.7661 C   0  0  0  0  0  0  0  0  0  0  0  0
   23.2810   35.2566   11.6824 C   0  0  0  0  0  0  0  0  0  0  0  0
   23.9516   36.8311    8.0825 F   0  0  0  0  0  0  0  0  0  0  0  0
   23.8077   34.7442    7.1414 F   0  0  0  0  0  0  0  0  0  0  0  0
   21.9554   35.9323    7.5419 F   0  0  0  0  0  0  0  0  0  0  0  0
   22.9142   33.9600   11.8192 N   0  0  0  0  0  0  0  0  0  0  0  0
   23.3841   35.8057   10.4585 N   0  0  0  0  0  0  0  0  0  0  0  0
  1  5  1  0
  6  7  1  0
  7  8  2  0
  1  8  1  0
  9  5  1  6
  3  9  1  0
  4  9  1  0
  4 10  1  1
 10  2  1  6
  3 11  1  1
 11  2  1  6
  6 13  1  1
  6 14  1  0
  6 15  1  0
 12 16  1  0
  1 16  2  0
 12 17  2  0
  7 17  1  0
M  END
$$$$
