7XPO_UPG_B_402
     RDKit          3D

 60 62  0  0  0  0  0  0  0  0999 V2000
  -19.1652  -11.7827   -9.9425 N   0  0  0  0  0  0  0  0  0  0  0  0
  -18.8534  -12.6323   -8.9033 C   0  0  0  0  0  0  0  0  0  0  0  0
  -19.7953  -13.4752   -8.3939 N   0  0  0  0  0  0  0  0  0  0  0  0
  -21.0625  -13.4845   -8.8832 C   0  0  0  0  0  0  0  0  0  0  0  0
  -21.4134  -12.6245   -9.9259 C   0  0  0  0  0  0  0  0  0  0  0  0
  -20.4378  -11.7824  -10.4511 C   0  0  0  0  0  0  0  0  0  0  0  0
  -17.6923  -12.6456   -8.4117 O   0  0  0  0  0  0  0  0  0  0  0  0
  -21.9189  -14.2707   -8.3944 O   0  0  0  0  0  0  0  0  0  0  0  0
  -18.1198  -10.9265  -10.5509 C   0  0  1  0  0  0  0  0  0  0  0  0
  -17.2058  -11.7407  -11.4582 C   0  0  2  0  0  0  0  0  0  0  0  0
  -16.1662  -12.3485  -10.7344 O   0  0  0  0  0  0  0  0  0  0  0  0
  -16.6989  -10.6923  -12.4210 C   0  0  1  0  0  0  0  0  0  0  0  0
  -17.8439   -9.6603  -12.4334 C   0  0  2  0  0  0  0  0  0  0  0  0
  -18.6854   -9.8877  -11.3214 O   0  0  0  0  0  0  0  0  0  0  0  0
  -15.4846  -10.1136  -11.9874 O   0  0  0  0  0  0  0  0  0  0  0  0
  -18.6622   -9.7353  -13.7334 C   0  0  2  0  0  0  0  0  0  0  0  0
  -18.2023  -10.8016  -14.5300 O   0  0  0  0  0  0  0  0  0  0  0  0
  -18.4827  -10.4460  -16.1823 P   0  0  2  0  0  5  0  0  0  0  0  0
  -17.4805   -9.4056  -16.6430 O   0  0  0  0  0  0  0  0  0  0  0  0
  -20.0497   -9.8409  -16.4415 O   0  0  0  0  0  0  0  0  0  0  0  0
  -18.3177  -11.8638  -17.1098 O   0  0  0  0  0  0  0  0  0  0  0  0
  -18.5241  -11.4556  -18.7534 P   0  0  2  0  0  5  0  0  0  0  0  0
  -17.4121  -10.5540  -19.2474 O   0  0  0  0  0  0  0  0  0  0  0  0
  -20.0059  -10.6653  -18.9571 O   0  0  0  0  0  0  0  0  0  0  0  0
  -18.5403  -12.8825  -19.6948 O   0  0  0  0  0  0  0  0  0  0  0  0
  -17.6409  -12.7384  -20.7762 C   0  0  2  0  0  0  0  0  0  0  0  0
  -18.2645  -11.8101  -21.8491 C   0  0  1  0  0  0  0  0  0  0  0  0
  -17.6014  -12.0279  -23.2345 C   0  0  2  0  0  0  0  0  0  0  0  0
  -16.1973  -12.6412  -23.0830 C   0  0  1  0  0  0  0  0  0  0  0  0
  -16.2829  -13.9694  -22.2632 C   0  0  1  0  0  0  0  0  0  0  0  0
  -14.9684  -14.2881  -21.5307 C   0  0  1  0  0  0  0  0  0  0  0  0
  -19.6428  -12.0536  -21.9702 O   0  0  0  0  0  0  0  0  0  0  0  0
  -17.5090  -10.8119  -23.9295 O   0  0  0  0  0  0  0  0  0  0  0  0
  -15.5953  -12.8571  -24.3381 O   0  0  0  0  0  0  0  0  0  0  0  0
  -17.3759  -14.0101  -21.3470 O   0  0  0  0  0  0  0  0  0  0  0  0
  -14.0229  -14.8291  -22.4137 O   0  0  0  0  0  0  0  0  0  0  0  0
  -19.5401  -14.1265   -7.6162 H   0  0  0  0  0  0  0  0  0  0  0  0
  -22.4196  -12.6205  -10.3268 H   0  0  0  0  0  0  0  0  0  0  0  0
  -20.7145  -11.1347  -11.2828 H   0  0  0  0  0  0  0  0  0  0  0  0
  -17.5165  -10.4447   -9.7457 H   0  0  0  0  0  0  0  0  0  0  0  0
  -17.8067  -12.5069  -12.0083 H   0  0  0  0  0  0  0  0  0  0  0  0
  -15.3241  -11.9658  -11.0866 H   0  0  0  0  0  0  0  0  0  0  0  0
  -16.5237  -11.1491  -13.4214 H   0  0  0  0  0  0  0  0  0  0  0  0
  -17.4313   -8.6298  -12.3568 H   0  0  0  0  0  0  0  0  0  0  0  0
  -15.0942  -10.6975  -11.2844 H   0  0  0  0  0  0  0  0  0  0  0  0
  -18.5320   -8.7611  -14.2538 H   0  0  0  0  0  0  0  0  0  0  0  0
  -19.7352   -9.8818  -13.4791 H   0  0  0  0  0  0  0  0  0  0  0  0
  -20.0203   -8.9035  -16.1236 H   0  0  0  0  0  0  0  0  0  0  0  0
  -20.6422  -11.1799  -18.3981 H   0  0  0  0  0  0  0  0  0  0  0  0
  -16.6984  -12.2487  -20.4335 H   0  0  0  0  0  0  0  0  0  0  0  0
  -18.0955  -10.7557  -21.5280 H   0  0  0  0  0  0  0  0  0  0  0  0
  -18.2177  -12.7457  -23.8262 H   0  0  0  0  0  0  0  0  0  0  0  0
  -15.5659  -11.9060  -22.5356 H   0  0  0  0  0  0  0  0  0  0  0  0
  -16.4617  -14.8009  -22.9807 H   0  0  0  0  0  0  0  0  0  0  0  0
  -14.5465  -13.3659  -21.0806 H   0  0  0  0  0  0  0  0  0  0  0  0
  -15.1625  -15.0029  -20.6990 H   0  0  0  0  0  0  0  0  0  0  0  0
  -20.1132  -11.3591  -21.4409 H   0  0  0  0  0  0  0  0  0  0  0  0
  -16.5448  -10.5802  -23.9748 H   0  0  0  0  0  0  0  0  0  0  0  0
  -14.9134  -12.1481  -24.4757 H   0  0  0  0  0  0  0  0  0  0  0  0
  -14.2683  -14.5121  -23.3220 H   0  0  0  0  0  0  0  0  0  0  0  0
  1  2  1  0
  2  3  1  0
  3  4  1  0
  4  5  1  0
  1  6  1  0
  5  6  2  0
  2  7  2  0
  4  8  2  0
  9  1  1  0
  9 10  1  0
 10 11  1  0
 10 12  1  0
 12 13  1  0
  9 14  1  0
 13 14  1  0
 12 15  1  0
 13 16  1  0
 16 17  1  0
 18 17  1  1
 18 19  2  0
 18 20  1  0
 18 21  1  0
 22 21  1  1
 22 23  2  0
 22 24  1  0
 22 25  1  0
 26 25  1  0
 26 27  1  0
 27 28  1  0
 28 29  1  0
 29 30  1  0
 30 31  1  0
 27 32  1  0
 28 33  1  0
 29 34  1  0
 26 35  1  0
 30 35  1  0
 31 36  1  0
  3 37  1  0
  5 38  1  0
  6 39  1  0
  9 40  1  1
 10 41  1  6
 11 42  1  0
 12 43  1  6
 13 44  1  1
 15 45  1  0
 16 46  1  6
 16 47  1  0
 20 48  1  0
 24 49  1  0
 26 50  1  1
 27 51  1  1
 28 52  1  6
 29 53  1  1
 30 54  1  6
 31 55  1  1
 31 56  1  0
 32 57  1  0
 33 58  1  0
 34 59  1  0
 36 60  1  0
M  END
