1MEH_MOA_A_600
     RDKit          3D

 23 24  0  0  0  0  0  0  0  0999 V2000
   62.2007   51.9415   17.1190 C   0  0  0  0  0  0  0  0  0  0  0  0
   62.0152   58.0447   17.3737 C   0  0  0  0  0  0  0  0  0  0  0  0
   61.7680   59.3761   17.4057 C   0  0  0  0  0  0  0  0  0  0  0  0
   62.9128   60.2634   17.8755 C   0  0  0  0  0  0  0  0  0  0  0  0
   63.0526   60.1751   19.4012 C   0  0  0  0  0  0  0  0  0  0  0  0
   62.8427   58.7763   19.9556 C   0  0  0  0  0  0  0  0  0  0  0  0
   60.5222   54.1548   21.2066 C   0  0  0  0  0  0  0  0  0  0  0  0
   61.3591   57.4329   20.4041 C   0  0  0  0  0  0  0  0  0  0  0  0
   60.4342   60.0185   17.0019 C   0  0  0  0  0  0  0  0  0  0  0  0
   61.6193   51.7289   19.4042 C   0  0  0  0  0  0  0  0  0  0  0  0
   61.3883   53.1619   18.9765 C   0  0  0  0  0  0  0  0  0  0  0  0
   60.8987   54.2884   19.7483 C   0  0  0  0  0  0  0  0  0  0  0  0
   60.7767   55.5593   19.0597 C   0  0  0  0  0  0  0  0  0  0  0  0
   61.1388   55.6664   17.6627 C   0  0  0  0  0  0  0  0  0  0  0  0
   61.6222   54.5206   16.9431 C   0  0  0  0  0  0  0  0  0  0  0  0
   61.7356   53.2782   17.6284 C   0  0  0  0  0  0  0  0  0  0  0  0
   61.0030   56.9971   16.9310 C   0  0  0  0  0  0  0  0  0  0  0  0
   62.5776   51.6188   16.0356 O   0  0  0  0  0  0  0  0  0  0  0  0
   62.1140   51.1119   18.1630 O   0  0  0  0  0  0  0  0  0  0  0  0
   60.3097   56.6429   19.7651 O   0  0  0  0  0  0  0  0  0  0  0  0
   61.9623   54.6495   15.6071 O   0  0  0  0  0  0  0  0  0  0  0  0
   63.8146   58.1955   20.4947 O   0  0  0  0  0  0  0  0  0  0  0  0
   61.7063   58.2620   19.8431 O   0  0  0  0  0  0  0  0  0  0  0  0
  2  3  2  0
  3  4  1  0
  4  5  1  0
  5  6  1  0
  3  9  1  0
 10 11  1  0
  7 12  1  0
 11 12  1  0
 12 13  2  0
 13 14  1  0
 14 15  2  0
  1 16  1  0
 11 16  2  0
 15 16  1  0
  2 17  1  0
 14 17  1  0
  1 18  2  0
  1 19  1  0
 10 19  1  0
  8 20  1  0
 13 20  1  0
 15 21  1  0
  6 22  1  0
  6 23  2  0
M  END
