7KM8_WPD_B_203
     RDKit          3D

 53 54  0  0  0  0  0  0  0  0999 V2000
  -10.9705   -9.7531   -4.2740 C   0  0  0  0  0  0  0  0  0  0  0  0
   -9.7368  -10.2525   -4.7117 O   0  0  0  0  0  0  0  0  0  0  0  0
  -10.8123  -11.9421   -6.0152 C   0  0  0  0  0  0  0  0  0  0  0  0
  -12.1650  -11.2384   -5.9567 C   0  0  0  0  0  0  0  0  0  0  0  0
  -12.1617  -10.1719   -4.8954 C   0  0  0  0  0  0  0  0  0  0  0  0
  -13.4087   -8.6976   -3.5222 C   0  0  0  0  0  0  0  0  0  0  0  0
  -11.0617   -8.8255   -3.2190 C   0  0  0  0  0  0  0  0  0  0  0  0
   -8.8683   -9.5153   -5.5761 C   0  0  0  0  0  0  0  0  0  0  0  0
   -7.9668  -10.4632   -6.3731 C   0  0  0  0  0  0  0  0  0  0  0  0
   -8.1340  -11.9152   -5.9119 C   0  0  0  0  0  0  0  0  0  0  0  0
  -10.5000  -11.6248   -5.1001 C   0  0  0  0  0  0  0  0  0  0  0  0
  -11.6203  -11.1049   -5.7589 C   0  0  0  0  0  0  0  0  0  0  0  0
  -12.6111  -10.4259   -5.0459 C   0  0  0  0  0  0  0  0  0  0  0  0
  -12.4943  -10.2637   -3.6637 C   0  0  0  0  0  0  0  0  0  0  0  0
  -11.3914  -10.7983   -2.9815 C   0  0  0  0  0  0  0  0  0  0  0  0
  -11.2432  -10.5919   -1.4945 C   0  0  0  0  0  0  0  0  0  0  0  0
  -10.5135   -9.2705   -1.1691 C   0  0  1  0  0  0  0  0  0  0  0  0
   -9.2456   -9.1214   -2.0255 C   0  0  1  0  0  0  0  0  0  0  0  0
  -11.4177   -8.0787   -1.3593 C   0  0  0  0  0  0  0  0  0  0  0  0
  -10.3983  -11.4808   -3.7026 C   0  0  0  0  0  0  0  0  0  0  0  0
   -9.1563  -10.1422   -2.9591 F   0  0  0  0  0  0  0  0  0  0  0  0
   -9.2541   -7.9024   -2.6849 F   0  0  0  0  0  0  0  0  0  0  0  0
  -13.3472   -9.6332   -4.5039 N   0  0  0  0  0  0  0  0  0  0  0  0
  -14.6650   -8.1337   -3.1525 N   0  0  0  0  0  0  0  0  0  0  0  0
  -12.2746   -8.3129   -2.8815 N   0  0  0  0  0  0  0  0  0  0  0  0
   -9.9148   -8.4578   -2.4485 N   0  0  0  0  0  0  0  0  0  0  0  0
   -9.5174  -12.2707   -5.8687 O   0  0  0  0  0  0  0  0  0  0  0  0
  -10.9285   -6.9182   -1.3912 O   0  0  0  0  0  0  0  0  0  0  0  0
  -12.7906   -8.2542   -1.5111 O   0  0  0  0  0  0  0  0  0  0  0  0
  -10.8319  -12.7177   -6.8097 H   0  0  0  0  0  0  0  0  0  0  0  0
  -10.5933  -12.4351   -5.0407 H   0  0  0  0  0  0  0  0  0  0  0  0
  -10.0044  -11.2117   -6.2475 H   0  0  0  0  0  0  0  0  0  0  0  0
  -12.3965  -10.8086   -6.9512 H   0  0  0  0  0  0  0  0  0  0  0  0
  -12.9539  -11.9881   -5.7279 H   0  0  0  0  0  0  0  0  0  0  0  0
   -8.2379   -8.8479   -4.9507 H   0  0  0  0  0  0  0  0  0  0  0  0
   -9.4537   -8.8820   -6.2737 H   0  0  0  0  0  0  0  0  0  0  0  0
   -6.9039  -10.1650   -6.2403 H   0  0  0  0  0  0  0  0  0  0  0  0
   -8.2184  -10.3787   -7.4500 H   0  0  0  0  0  0  0  0  0  0  0  0
   -7.6303  -12.5845   -6.6418 H   0  0  0  0  0  0  0  0  0  0  0  0
   -7.6561  -12.0842   -4.9231 H   0  0  0  0  0  0  0  0  0  0  0  0
  -11.7154  -11.2159   -6.8317 H   0  0  0  0  0  0  0  0  0  0  0  0
  -13.4669  -10.0174   -5.5670 H   0  0  0  0  0  0  0  0  0  0  0  0
  -13.2619   -9.7220   -3.1252 H   0  0  0  0  0  0  0  0  0  0  0  0
  -12.2551  -10.5785   -1.0325 H   0  0  0  0  0  0  0  0  0  0  0  0
  -10.7000  -11.4518   -1.0423 H   0  0  0  0  0  0  0  0  0  0  0  0
  -10.1902   -9.3079   -0.1033 H   0  0  0  0  0  0  0  0  0  0  0  0
   -8.3468   -9.1572   -1.3729 H   0  0  0  0  0  0  0  0  0  0  0  0
   -9.5514  -11.8865   -3.1674 H   0  0  0  0  0  0  0  0  0  0  0  0
  -14.7197   -7.4149   -2.3970 H   0  0  0  0  0  0  0  0  0  0  0  0
  -15.5382   -8.4146   -3.6516 H   0  0  0  0  0  0  0  0  0  0  0  0
   -9.9955   -7.7225   -1.7124 H   0  0  0  0  0  0  0  0  0  0  0  0
   -9.0195   -8.9855   -2.5178 H   0  0  0  0  0  0  0  0  0  0  0  0
  -13.4056   -7.4590   -1.6355 H   0  0  0  0  0  0  0  0  0  0  0  0
  1  2  1  0
  3  4  1  0
  1  5  4  0
  4  5  1  0
  1  7  4  0
  2  8  1  0
  8  9  1  0
  9 10  1  0
 11 12  4  0
 12 13  4  0
 13 14  4  0
 14 15  4  0
 15 16  1  0
 17 16  1  0
 17 18  1  0
 17 19  1  0
 15 20  4  0
 11 20  4  0
 18 21  1  0
 18 22  1  0
  6 23  4  0
  5 23  4  0
  6 24  1  0
  7 25  4  0
  6 25  4  0
  7 26  1  0
 11 27  1  0
 10 27  1  0
 19 28  2  0
 19 29  1  0
  3 30  1  0
  3 31  1  0
  3 32  1  0
  4 33  1  0
  4 34  1  0
  8 35  1  0
  8 36  1  0
  9 37  1  0
  9 38  1  0
 10 39  1  0
 10 40  1  0
 12 41  1  0
 13 42  1  0
 14 43  1  0
 16 44  1  0
 16 45  1  0
 17 46  1  6
 18 47  1  6
 20 48  1  0
 24 49  1  0
 24 50  1  0
 26 51  1  0
 26 52  1  0
 29 53  1  0
M  END
