7MZS_GLA_A_301
     RDKit          3D

 12 12  0  0  0  0  0  0  0  0999 V2000
  -17.4435  -16.1328   13.4396 C   0  0  1  0  0  0  0  0  0  0  0  0
  -18.6432  -15.9078   14.3679 C   0  0  1  0  0  0  0  0  0  0  0  0
  -19.4983  -17.1138   14.5099 C   0  0  2  0  0  0  0  0  0  0  0  0
  -19.9080  -17.6396   13.1633 C   0  0  2  0  0  0  0  0  0  0  0  0
  -18.6820  -17.8460   12.2819 C   0  0  1  0  0  0  0  0  0  0  0  0
  -19.1320  -18.2954   10.9091 C   0  0  0  0  0  0  0  0  0  0  0  0
  -16.5346  -17.0162   13.9949 O   0  0  0  0  0  0  0  0  0  0  0  0
  -18.1419  -15.5110   15.6678 O   0  0  0  0  0  0  0  0  0  0  0  0
  -20.6816  -16.8263   15.3091 O   0  0  0  0  0  0  0  0  0  0  0  0
  -20.7781  -16.7268   12.4950 O   0  0  0  0  0  0  0  0  0  0  0  0
  -17.8724  -16.6241   12.1598 O   0  0  0  0  0  0  0  0  0  0  0  0
  -18.1410  -19.1320   10.3380 O   0  0  0  0  0  0  0  0  0  0  0  0
  1  2  1  0
  2  3  1  0
  3  4  1  0
  4  5  1  0
  5  6  1  6
  1  7  1  1
  2  8  1  1
  3  9  1  1
  4 10  1  6
  1 11  1  0
  5 11  1  0
  6 12  1  0
M  END
