6XHT_V2V_B_301
     RDKit          3D

 34 35  0  0  0  0  0  0  0  0999 V2000
    5.7001  -18.0954   53.1553 C   0  0  0  0  0  0  0  0  0  0  0  0
    6.1924  -19.3401   53.4932 C   0  0  0  0  0  0  0  0  0  0  0  0
    8.3632  -18.4845   53.5252 C   0  0  0  0  0  0  0  0  0  0  0  0
    6.5822  -17.0236   53.0018 C   0  0  0  0  0  0  0  0  0  0  0  0
    8.0182  -20.8220   54.0261 C   0  0  2  0  0  0  0  0  0  0  0  0
    8.3015  -21.0479   55.4726 C   0  0  1  0  0  0  0  0  0  0  0  0
    8.4014  -22.5774   55.5301 C   0  0  1  0  0  0  0  0  0  0  0  0
    7.7152  -22.9824   54.2680 C   0  0  1  0  0  0  0  0  0  0  0  0
    6.6294  -24.0167   54.4760 C   0  0  0  0  0  0  0  0  0  0  0  0
    2.9937  -21.3317   51.5022 C   0  0  0  0  0  0  0  0  0  0  0  0
    1.6505  -20.7705   51.0891 C   0  0  2  0  0  0  0  0  0  0  0  0
    1.8421  -19.6786   50.0775 C   0  0  2  0  0  0  0  0  0  0  0  0
    0.5512  -19.2011   49.4960 C   0  0  2  0  0  0  0  0  0  0  0  0
    0.6750  -18.0462   48.5517 C   0  0  0  0  0  0  0  0  0  0  0  0
    7.5318  -19.5296   53.6778 N   0  0  0  0  0  0  0  0  0  0  0  0
    7.8925  -17.2632   53.1949 N   0  0  0  0  0  0  0  0  0  0  0  0
    6.0793  -15.7287   52.6512 N   0  0  0  0  0  0  0  0  0  0  0  0
    9.6041  -18.5848   53.6789 O   0  0  0  0  0  0  0  0  0  0  0  0
    7.1126  -21.8442   53.7386 O   0  0  0  0  0  0  0  0  0  0  0  0
    5.4411  -23.4945   53.9678 O   0  0  0  0  0  0  0  0  0  0  0  0
    4.5633  -25.5261   55.3167 O   0  0  0  0  0  0  0  0  0  0  0  0
    3.1370  -23.3840   55.5703 O   0  0  0  0  0  0  0  0  0  0  0  0
    3.1960  -24.8868   53.2254 O   0  0  0  0  0  0  0  0  0  0  0  0
    2.1109  -24.2915   50.9234 O   0  0  0  0  0  0  0  0  0  0  0  0
    4.6651  -23.7104   51.1527 O   0  0  0  0  0  0  0  0  0  0  0  0
    2.7163  -22.3159   52.4563 O   0  0  0  0  0  0  0  0  0  0  0  0
    1.5495  -18.3084   47.5026 O   0  0  0  0  0  0  0  0  0  0  0  0
   -0.3139  -18.7604   50.5309 O   0  0  0  0  0  0  0  0  0  0  0  0
    2.7168  -20.0770   49.0555 O   0  0  0  0  0  0  0  0  0  0  0  0
    1.0012  -20.3516   52.2412 O   0  0  0  0  0  0  0  0  0  0  0  0
    9.7577  -22.9042   55.5145 O   0  0  0  0  0  0  0  0  0  0  0  0
    9.4784  -20.4588   55.9203 O   0  0  0  0  0  0  0  0  0  0  0  0
    4.0749  -24.3337   54.5361 P   0  0  1  0  0  5  0  0  0  0  0  0
    3.1751  -23.8489   51.9171 P   0  0  2  0  0  5  0  0  0  0  0  0
  1  2  2  0
  1  4  1  0
  5  6  1  0
  6  7  1  0
  7  8  1  0
  8  9  1  0
 10 11  1  0
 11 12  1  0
 12 13  1  0
 13 14  1  0
  2 15  1  0
  3 15  1  0
  5 15  1  1
  3 16  1  0
  4 16  2  0
  4 17  1  0
  3 18  2  0
  5 19  1  0
  8 19  1  1
  9 20  1  1
 10 26  1  1
 14 27  1  6
 13 28  1  1
 12 29  1  6
 11 30  1  1
  7 31  1  6
  6 32  1  6
 33 20  1  0
 21 33  2  0
 33 22  1  1
 23 33  1  0
 34 23  1  0
 24 34  2  0
 34 25  1  6
 26 34  1  0
M  END
$$$$
