7F51_BA7_A_402
     RDKit          3D

 71 75  0  0  0  0  0  0  0  0999 V2000
    5.8714    2.8336    4.5763 C   0  0  0  0  0  0  0  0  0  0  0  0
   -5.9797    3.9948   12.6123 C   0  0  2  0  0  0  0  0  0  0  0  0
    5.9419    0.4011    4.4723 C   0  0  0  0  0  0  0  0  0  0  0  0
    6.1352    1.5911    5.1825 C   0  0  0  0  0  0  0  0  0  0  0  0
    3.5548    3.9701    6.3950 C   0  0  2  0  0  0  0  0  0  0  0  0
   -2.0198    1.9615   12.9345 C   0  0  0  0  0  0  0  0  0  0  0  0
   -6.1418    4.8445   13.8659 C   0  0  1  0  0  0  0  0  0  0  0  0
    4.6840    4.2483    7.3593 C   0  0  1  0  0  0  0  0  0  0  0  0
    5.3980    2.8594    3.2510 C   0  0  0  0  0  0  0  0  0  0  0  0
   -5.7588    6.2206   13.3791 C   0  0  1  0  0  0  0  0  0  0  0  0
    4.4623    3.2068    8.4354 C   0  0  1  0  0  0  0  0  0  0  0  0
   -4.3465    2.1006   13.0436 C   0  0  0  0  0  0  0  0  0  0  0  0
   -4.7935    5.9154   12.2268 C   0  0  1  0  0  0  0  0  0  0  0  0
    2.9708    2.8635    8.2763 C   0  0  1  0  0  0  0  0  0  0  0  0
   -4.4389    0.7991   13.4003 C   0  0  0  0  0  0  0  0  0  0  0  0
   -3.3315    6.0499   12.6695 C   0  0  2  0  0  0  0  0  0  0  0  0
    2.1558    3.2178    9.5253 C   0  0  1  0  0  0  0  0  0  0  0  0
   -3.2879    0.0313   13.5348 C   0  0  0  0  0  0  0  0  0  0  0  0
    6.0917    4.0952    5.3160 C   0  0  0  0  0  0  0  0  0  0  0  0
    5.1983    1.6659    2.5497 C   0  0  0  0  0  0  0  0  0  0  0  0
   -6.3930    1.5981   13.2865 C   0  0  0  0  0  0  0  0  0  0  0  0
    5.4724    0.4387    3.1579 C   0  0  0  0  0  0  0  0  0  0  0  0
   -2.0892    0.6405   13.2941 N   0  0  0  0  0  0  0  0  0  0  0  0
   -3.1587    2.7072   12.8069 N   0  0  0  0  0  0  0  0  0  0  0  0
   -3.3403   -1.3450   13.9068 N   0  0  0  0  0  0  0  0  0  0  0  0
   -5.7254    0.4450   13.5669 N   0  0  0  0  0  0  0  0  0  0  0  0
   -5.5742    2.6295   12.9549 N   0  0  0  0  0  0  0  0  0  0  0  0
   -0.5728    5.0978   13.8538 O   0  0  0  0  0  0  0  0  0  0  0  0
    2.5003    4.3163   12.3545 O   0  0  0  0  0  0  0  0  0  0  0  0
    3.2340    5.1351    5.6865 O   0  0  0  0  0  0  0  0  0  0  0  0
   -7.4585    4.8153   14.3516 O   0  0  0  0  0  0  0  0  0  0  0  0
   -0.5839    6.8621   11.9401 O   0  0  0  0  0  0  0  0  0  0  0  0
    1.5005    6.5857   11.5681 O   0  0  0  0  0  0  0  0  0  0  0  0
    5.9487    4.1187    6.7096 O   0  0  0  0  0  0  0  0  0  0  0  0
   -6.8746    6.9550   12.9285 O   0  0  0  0  0  0  0  0  0  0  0  0
    0.0357    4.2089   11.4828 O   0  0  0  0  0  0  0  0  0  0  0  0
    5.2370    2.0563    8.1978 O   0  0  0  0  0  0  0  0  0  0  0  0
   -5.0250    4.5995   11.7645 O   0  0  0  0  0  0  0  0  0  0  0  0
    2.4513    3.5492    7.1562 O   0  0  0  0  0  0  0  0  0  0  0  0
   -2.5992    4.9485   12.1900 O   0  0  0  0  0  0  0  0  0  0  0  0
    2.2021    4.6075    9.7570 O   0  0  0  0  0  0  0  0  0  0  0  0
    6.4013    5.1489    4.6933 O   0  0  0  0  0  0  0  0  0  0  0  0
   -0.9347    5.2700   12.3973 P   0  0  1  0  0  5  0  0  0  0  0  0
    1.5769    4.9126   11.3148 P   0  0  2  0  0  5  0  0  0  0  0  0
   -6.9451    3.9531   12.0594 H   0  0  0  0  0  0  0  0  0  0  0  0
    6.1629   -0.5505    4.9417 H   0  0  0  0  0  0  0  0  0  0  0  0
    6.5031    1.5380    6.2000 H   0  0  0  0  0  0  0  0  0  0  0  0
    3.8460    3.1564    5.6881 H   0  0  0  0  0  0  0  0  0  0  0  0
   -1.0575    2.4140   12.7460 H   0  0  0  0  0  0  0  0  0  0  0  0
   -5.4220    4.5217   14.6556 H   0  0  0  0  0  0  0  0  0  0  0  0
    4.5606    5.2711    7.7865 H   0  0  0  0  0  0  0  0  0  0  0  0
    5.1880    3.7982    2.7552 H   0  0  0  0  0  0  0  0  0  0  0  0
   -5.2727    6.7960   14.1978 H   0  0  0  0  0  0  0  0  0  0  0  0
    4.6953    3.6324    9.4413 H   0  0  0  0  0  0  0  0  0  0  0  0
   -4.9640    6.6250   11.3856 H   0  0  0  0  0  0  0  0  0  0  0  0
    2.8492    1.7704    8.0978 H   0  0  0  0  0  0  0  0  0  0  0  0
   -3.2929    6.0883   13.7824 H   0  0  0  0  0  0  0  0  0  0  0  0
   -2.9309    7.0002   12.2497 H   0  0  0  0  0  0  0  0  0  0  0  0
    1.1071    2.8860    9.3573 H   0  0  0  0  0  0  0  0  0  0  0  0
    2.5810    2.6498   10.3845 H   0  0  0  0  0  0  0  0  0  0  0  0
    4.8292    1.6931    1.5323 H   0  0  0  0  0  0  0  0  0  0  0  0
   -7.4734    1.6777   13.3195 H   0  0  0  0  0  0  0  0  0  0  0  0
    5.3194   -0.4829    2.6106 H   0  0  0  0  0  0  0  0  0  0  0  0
   -2.7434   -1.7010   14.6845 H   0  0  0  0  0  0  0  0  0  0  0  0
   -3.9570   -2.0168   13.3972 H   0  0  0  0  0  0  0  0  0  0  0  0
    2.2481    5.2322    5.7427 H   0  0  0  0  0  0  0  0  0  0  0  0
   -7.4122    4.4252   15.2635 H   0  0  0  0  0  0  0  0  0  0  0  0
   -1.1088    7.0190   11.1178 H   0  0  0  0  0  0  0  0  0  0  0  0
    1.7646    6.9867   10.7013 H   0  0  0  0  0  0  0  0  0  0  0  0
   -7.4096    7.2265   13.7216 H   0  0  0  0  0  0  0  0  0  0  0  0
    6.1509    2.3669    7.9589 H   0  0  0  0  0  0  0  0  0  0  0  0
  3  4  2  0
  1  4  1  0
  2  7  1  0
  5  8  1  0
  1  9  2  0
  7 10  1  0
  8 11  1  0
 10 13  1  0
 11 14  1  0
 12 15  1  0
 13 16  1  0
 14 17  1  0
 15 18  2  0
  1 19  1  0
  9 20  1  0
 20 22  2  0
  3 22  1  0
  6 23  2  0
 18 23  1  0
 12 24  2  0
  6 24  1  0
 18 25  1  0
 21 26  2  0
 15 26  1  0
  2 27  1  0
 21 27  1  0
 12 27  1  0
  5 30  1  0
  7 31  1  0
 19 34  1  0
  8 34  1  0
 10 35  1  0
 11 37  1  0
 13 38  1  0
  2 38  1  0
  5 39  1  0
 14 39  1  0
 16 40  1  0
 17 41  1  0
 19 42  2  0
 43 36  1  6
 28 43  2  0
 43 32  1  0
 40 43  1  0
 44 41  1  6
 29 44  2  0
 44 33  1  0
 36 44  1  0
  2 45  1  6
  3 46  1  0
  4 47  1  0
  5 48  1  6
  6 49  1  0
  7 50  1  1
  8 51  1  1
  9 52  1  0
 10 53  1  1
 11 54  1  1
 13 55  1  6
 14 56  1  6
 16 57  1  1
 16 58  1  0
 17 59  1  6
 17 60  1  0
 20 61  1  0
 21 62  1  0
 22 63  1  0
 25 64  1  0
 25 65  1  0
 30 66  1  0
 31 67  1  0
 32 68  1  0
 33 69  1  0
 35 70  1  0
 37 71  1  0
M  END
