@<TRIPOS>MOLECULE
1XM6_5RM_A_1003
 38 39 0 0 0
SMALL
GASTEIGER

@<TRIPOS>ATOM
      1 O          -1.5983   -0.0137    4.3913 O.2     1  UNL1       -0.2265
      2 C          -0.8663    0.5357    3.5278 C.2     1  UNL1        0.4013
      3 O          -1.2809    0.8274    2.2505 O.3     1  UNL1       -0.4377
      4 N           0.4684    0.9094    3.7623 N.am    1  UNL1       -0.2770
      5 C           0.9902    1.4509    2.5178 C.3     1  UNL1        0.0587
      6 C          -0.2251    1.4608    1.5247 C.3     1  UNL1        0.1527
      7 C          -0.6613    2.8962    1.1957 C.3     1  UNL1       -0.0190
      8 C           0.0878    0.7043    0.2366 C.ar    1  UNL1        0.0008
      9 C           1.2222    1.0471   -0.5189 C.ar    1  UNL1       -0.0511
     10 C           1.5116    0.3849   -1.7117 C.ar    1  UNL1       -0.0159
     11 C           0.6660   -0.6339   -2.1841 C.ar    1  UNL1        0.1615
     12 O           0.9279   -1.3257   -3.3775 O.3     1  UNL1       -0.4915
     13 C           2.0501   -1.0846   -4.2202 C.3     1  UNL1        0.0790
     14 C          -0.4782   -0.9805   -1.4509 C.ar    1  UNL1        0.1623
     15 C          -0.7691   -0.3014   -0.2507 C.ar    1  UNL1       -0.0093
     16 O          -1.3021   -2.0004   -1.9586 O.3     1  UNL1       -0.4883
     17 C          -2.4139   -2.5924   -1.2839 C.3     1  UNL1        0.0895
     18 C          -1.9527   -3.5108   -0.1456 C.3     1  UNL1       -0.0215
     19 C          -1.0890   -4.6603   -0.6597 C.3     1  UNL1       -0.0622
     20 H           1.0082    0.7507    4.6418 H       1  UNL1        0.1522
     21 H           1.4000    2.4686    2.6968 H       1  UNL1        0.0506
     22 H           1.8138    0.7930    2.1649 H       1  UNL1        0.0506
     23 H          -1.5473    2.8821    0.5252 H       1  UNL1        0.0272
     24 H          -0.9369    3.4362    2.1269 H       1  UNL1        0.0272
     25 H           0.1580    3.4540    0.6941 H       1  UNL1        0.0272
     26 H           1.8878    1.8322   -0.1821 H       1  UNL1        0.0623
     27 H           2.3970    0.6749   -2.2607 H       1  UNL1        0.0655
     28 H           2.0288   -0.0395   -4.5949 H       1  UNL1        0.0660
     29 H           2.0060   -1.7739   -5.0882 H       1  UNL1        0.0660
     30 H           2.9927   -1.2732   -3.6642 H       1  UNL1        0.0660
     31 H          -1.6627   -0.5488    0.3009 H       1  UNL1        0.0659
     32 H          -3.1020   -1.8091   -0.9021 H       1  UNL1        0.0696
     33 H          -2.9902   -3.1929   -2.0194 H       1  UNL1        0.0696
     34 H          -1.3779   -2.9327    0.6078 H       1  UNL1        0.0295
     35 H          -2.8480   -3.9323    0.3601 H       1  UNL1        0.0295
     36 H          -1.6506   -5.2625   -1.4052 H       1  UNL1        0.0231
     37 H          -0.8060   -5.3192    0.1880 H       1  UNL1        0.0231
     38 H          -0.1605   -4.2689   -1.1272 H       1  UNL1        0.0231
@<TRIPOS>BOND
     1     1     2    2
     2     2     3    1
     3     2     4   am
     4     4     5    1
     5     3     6    1
     6     5     6    1
     7     6     7    1
     8     6     8    1
     9     8     9   ar
    10     9    10   ar
    11    10    11   ar
    12    11    12    1
    13    12    13    1
    14    11    14   ar
    15     8    15   ar
    16    14    15   ar
    17    14    16    1
    18    16    17    1
    19    17    18    1
    20    18    19    1
    21     4    20    1
    22     5    21    1
    23     5    22    1
    24     7    23    1
    25     7    24    1
    26     7    25    1
    27     9    26    1
    28    10    27    1
    29    13    28    1
    30    13    29    1
    31    13    30    1
    32    15    31    1
    33    17    32    1
    34    17    33    1
    35    18    34    1
    36    18    35    1
    37    19    36    1
    38    19    37    1
    39    19    38    1
