7N03_ZRP_A_201
     RDKit          3D

 28 30  0  0  0  0  0  0  0  0999 V2000
  -35.2300   14.1795    6.9588 C   0  0  0  0  0  0  0  0  0  0  0  0
  -36.2545   13.4855    7.8520 C   0  0  0  0  0  0  0  0  0  0  0  0
  -37.1933   12.5818    7.0680 C   0  0  0  0  0  0  0  0  0  0  0  0
  -42.8809   13.0206    8.7412 C   0  0  0  0  0  0  0  0  0  0  0  0
  -44.0094   12.2551    8.7785 C   0  0  0  0  0  0  0  0  0  0  0  0
  -44.3401   11.4110    7.6910 C   0  0  0  0  0  0  0  0  0  0  0  0
  -43.4762   11.3659    6.5714 C   0  0  0  0  0  0  0  0  0  0  0  0
  -42.2976   12.1520    6.5849 C   0  0  0  0  0  0  0  0  0  0  0  0
  -43.8402   10.5095    5.4991 C   0  0  0  0  0  0  0  0  0  0  0  0
  -44.9566    9.6676    5.6280 C   0  0  0  0  0  0  0  0  0  0  0  0
  -45.7370    9.8233    6.7848 C   0  0  0  0  0  0  0  0  0  0  0  0
  -45.3196    8.6707    4.5807 C   0  0  0  0  0  0  0  0  0  0  0  0
  -46.8139    6.9524    3.7382 C   0  0  0  0  0  0  0  0  0  0  0  0
  -40.2567   12.0244    2.5807 C   0  0  0  0  0  0  0  0  0  0  0  0
  -40.4618   13.3797    2.7955 C   0  0  0  0  0  0  0  0  0  0  0  0
  -41.5606   13.8025    3.5017 C   0  0  0  0  0  0  0  0  0  0  0  0
  -42.4179   12.8675    4.0568 C   0  0  0  0  0  0  0  0  0  0  0  0
  -44.6126    8.4785    3.5760 O   0  0  0  0  0  0  0  0  0  0  0  0
  -46.4023    7.9147    4.7495 N   0  0  0  0  0  0  0  0  0  0  0  0
  -45.4705   10.6571    7.7649 N   0  0  0  0  0  0  0  0  0  0  0  0
  -43.0887   10.4743    4.3313 N   0  0  0  0  0  0  0  0  0  0  0  0
  -42.1928   11.5131    3.8752 C   0  0  0  0  0  0  0  0  0  0  0  0
  -41.1047   11.0866    3.1238 C   0  0  0  0  0  0  0  0  0  0  0  0
  -42.0023   12.9673    7.6620 C   0  0  0  0  0  0  0  0  0  0  0  0
  -40.8202   13.6787    7.6726 N   0  0  0  0  0  0  0  0  0  0  0  0
  -39.5612   12.9976    7.9404 C   0  0  0  0  0  0  0  0  0  0  0  0
  -38.5543   13.1889    6.8315 C   0  0  0  0  0  0  0  0  0  0  0  0
  -35.6214   14.2720    5.5029 C   0  0  0  0  0  0  0  0  0  0  0  0
  1  2  1  0
  2  3  1  0
  4  5  2  0
  5  6  1  0
  6  7  2  0
  7  8  1  0
  7  9  1  0
  9 10  2  0
 10 11  1  0
 10 12  1  0
 14 15  2  0
 15 16  1  0
 16 17  2  0
 12 18  2  0
 12 19  1  0
 13 19  1  0
  6 20  1  0
 11 20  2  0
  9 21  1  0
 21 22  1  0
 17 22  1  0
 14 23  1  0
 22 23  2  0
  4 24  1  0
  8 24  2  0
 24 25  1  0
 25 26  1  0
 26 27  1  0
  3 27  1  0
  1 28  1  0
M  END
