7SGV_L30_A_501
     RDKit          3D

 19 21  0  0  0  0  0  0  0  0999 V2000
   -3.7152   77.1679   36.3659 O   0  0  0  0  0  0  0  0  0  0  0  0
   -2.9977   76.8326   35.4026 C   0  0  0  0  0  0  0  0  0  0  0  0
   -2.1810   75.5300   35.5245 C   0  0  0  0  0  0  0  0  0  0  0  0
   -1.7218   75.0749   36.7740 C   0  0  0  0  0  0  0  0  0  0  0  0
   -0.9572   73.9172   36.8635 C   0  0  0  0  0  0  0  0  0  0  0  0
   -0.6278   73.2448   35.6897 C   0  0  0  0  0  0  0  0  0  0  0  0
   -1.0715   73.6825   34.5024 N   0  0  0  0  0  0  0  0  0  0  0  0
   -1.8330   74.7772   34.3897 C   0  0  0  0  0  0  0  0  0  0  0  0
   -2.7847   77.5458   34.2356 N   0  0  0  0  0  0  0  0  0  0  0  0
   -3.1664   78.8528   34.0266 C   0  0  0  0  0  0  0  0  0  0  0  0
   -3.8179   79.2610   32.8584 C   0  0  0  0  0  0  0  0  0  0  0  0
   -4.4078   80.5417   32.7199 C   0  0  0  0  0  0  0  0  0  0  0  0
   -4.3840   81.4842   33.7546 C   0  0  0  0  0  0  0  0  0  0  0  0
   -3.7515   81.1630   34.9649 C   0  0  0  0  0  0  0  0  0  0  0  0
   -3.6788   82.0868   36.0053 C   0  0  0  0  0  0  0  0  0  0  0  0
   -3.0208   81.7652   37.1854 C   0  0  0  0  0  0  0  0  0  0  0  0
   -2.4443   80.5030   37.3938 C   0  0  0  0  0  0  0  0  0  0  0  0
   -2.4885   79.5308   36.3819 C   0  0  0  0  0  0  0  0  0  0  0  0
   -3.1273   79.8287   35.1621 C   0  0  0  0  0  0  0  0  0  0  0  0
  1  2  2  0
  2  3  1  0
  3  4  2  0
  4  5  1  0
  5  6  2  0
  6  7  1  0
  7  8  2  0
  3  8  1  0
  2  9  1  0
  9 10  1  0
 10 11  2  0
 11 12  1  0
 12 13  2  0
 13 14  1  0
 14 15  2  0
 15 16  1  0
 16 17  2  0
 17 18  1  0
 18 19  2  0
 14 19  1  0
 10 19  1  0
M  END
