1XOZ_CIA_A_501
     RDKit          3D

 29 34  0  0  0  0  0  0  0  0999 V2000
   55.3514   43.5289   25.7651 C   0  0  0  0  0  0  0  0  0  0  0  0
   56.3240   43.1581   26.6774 C   0  0  0  0  0  0  0  0  0  0  0  0
   56.3800   43.8625   27.8740 C   0  0  0  0  0  0  0  0  0  0  0  0
   55.4992   44.8919   28.1412 C   0  0  0  0  0  0  0  0  0  0  0  0
   55.3281   45.7445   29.2217 C   0  0  0  0  0  0  0  0  0  0  0  0
   54.2788   46.6151   28.9808 C   0  0  0  0  0  0  0  0  0  0  0  0
   53.8245   46.2838   27.7579 N   0  0  0  0  0  0  0  0  0  0  0  0
   54.5309   45.2648   27.2387 C   0  0  0  0  0  0  0  0  0  0  0  0
   54.4806   44.5587   26.0480 C   0  0  0  0  0  0  0  0  0  0  0  0
   53.8709   47.6460   29.9660 C   0  0  2  0  0  0  0  0  0  0  0  0
   54.6899   47.5189   31.1441 N   0  0  0  0  0  0  0  0  0  0  0  0
   54.2393   47.6108   32.4707 C   0  0  0  0  0  0  0  0  0  0  0  0
   53.1254   47.0414   32.7331 O   0  0  0  0  0  0  0  0  0  0  0  0
   55.0376   48.3314   33.4689 C   0  0  0  0  0  0  0  0  0  0  0  0
   56.4485   48.2556   33.2029 N   0  0  0  0  0  0  0  0  0  0  0  0
   56.9233   47.4770   32.1120 C   0  0  0  0  0  0  0  0  0  0  0  0
   58.0655   46.9533   32.1684 O   0  0  0  0  0  0  0  0  0  0  0  0
   56.1216   47.2561   30.9034 C   0  0  1  0  0  0  0  0  0  0  0  0
   56.1312   45.7753   30.4780 C   0  0  0  0  0  0  0  0  0  0  0  0
   57.3809   48.9726   34.0471 C   0  0  0  0  0  0  0  0  0  0  0  0
   52.4385   47.7607   30.2020 C   0  0  0  0  0  0  0  0  0  0  0  0
   51.7365   46.5991   30.5206 C   0  0  0  0  0  0  0  0  0  0  0  0
   50.3760   46.6482   30.7435 C   0  0  0  0  0  0  0  0  0  0  0  0
   49.6362   47.8085   30.6701 C   0  0  0  0  0  0  0  0  0  0  0  0
   48.2987   48.1373   30.8412 O   0  0  0  0  0  0  0  0  0  0  0  0
   48.2546   49.5462   31.1126 C   0  0  0  0  0  0  0  0  0  0  0  0
   49.3798   49.9795   30.3411 O   0  0  0  0  0  0  0  0  0  0  0  0
   50.3339   48.9640   30.3531 C   0  0  0  0  0  0  0  0  0  0  0  0
   51.6918   48.9134   30.1308 C   0  0  0  0  0  0  0  0  0  0  0  0
  1  2  2  0
  2  3  1  0
  3  4  2  0
  4  5  1  0
  5  6  2  0
  6  7  1  0
  4  8  1  0
  7  8  1  0
  1  9  1  0
  8  9  2  0
  6 10  1  0
 10 11  1  0
 11 12  1  0
 12 13  2  0
 12 14  1  0
 14 15  1  0
 15 16  1  0
 16 17  2  0
 11 18  1  0
 16 18  1  0
  5 19  1  0
 18 19  1  1
 15 20  1  0
 10 21  1  1
 21 22  2  0
 22 23  1  0
 23 24  2  0
 24 25  1  0
 25 26  1  0
 26 27  1  0
 24 28  1  0
 27 28  1  0
 21 29  1  0
 28 29  2  0
M  END
$$$$
