1XOZ_CIA_A_501
     RDKit          3D

 29 34  0  0  0  0  0  0  0  0999 V2000
   50.9469   34.9537    8.5314 C   0  0  0  0  0  0  0  0  0  0  0  0
   51.1717   33.7934    9.2517 C   0  0  0  0  0  0  0  0  0  0  0  0
   50.3860   33.5771   10.3772 C   0  0  0  0  0  0  0  0  0  0  0  0
   49.4189   34.4850   10.7609 C   0  0  0  0  0  0  0  0  0  0  0  0
   48.5128   34.5270   11.8102 C   0  0  0  0  0  0  0  0  0  0  0  0
   47.7513   35.6810   11.7369 C   0  0  0  0  0  0  0  0  0  0  0  0
   48.2024   36.3278   10.6461 N   0  0  0  0  0  0  0  0  0  0  0  0
   49.1909   35.6395   10.0494 C   0  0  0  0  0  0  0  0  0  0  0  0
   49.9776   35.8490    8.9286 C   0  0  0  0  0  0  0  0  0  0  0  0
   46.7010   35.9945   12.7362 C   0  0  2  0  0  0  0  0  0  0  0  0
   46.6130   34.9098   13.6799 N   0  0  0  0  0  0  0  0  0  0  0  0
   45.4260   34.3612   14.1912 C   0  0  0  0  0  0  0  0  0  0  0  0
   44.4680   34.2046   13.3595 O   0  0  0  0  0  0  0  0  0  0  0  0
   45.3356   34.0011   15.6107 C   0  0  0  0  0  0  0  0  0  0  0  0
   46.6003   33.5857   16.1539 N   0  0  0  0  0  0  0  0  0  0  0  0
   47.7388   33.4918   15.3072 C   0  0  0  0  0  0  0  0  0  0  0  0
   48.6469   32.6624   15.5709 O   0  0  0  0  0  0  0  0  0  0  0  0
   47.8998   34.3371   14.1191 C   0  0  1  0  0  0  0  0  0  0  0  0
   48.3452   33.5162   12.8938 C   0  0  0  0  0  0  0  0  0  0  0  0
   46.7100   33.2645   17.5613 C   0  0  0  0  0  0  0  0  0  0  0  0
   45.4338   36.4634   12.1930 C   0  0  0  0  0  0  0  0  0  0  0  0
   44.6869   37.3554   12.9613 C   0  0  0  0  0  0  0  0  0  0  0  0
   43.4739   37.8233   12.5000 C   0  0  0  0  0  0  0  0  0  0  0  0
   42.9299   37.4563   11.2882 C   0  0  0  0  0  0  0  0  0  0  0  0
   41.7660   37.7626   10.5969 O   0  0  0  0  0  0  0  0  0  0  0  0
   42.0171   37.4585    9.2168 C   0  0  0  0  0  0  0  0  0  0  0  0
   42.9217   36.3595    9.3688 O   0  0  0  0  0  0  0  0  0  0  0  0
   43.6723   36.5691   10.5239 C   0  0  0  0  0  0  0  0  0  0  0  0
   44.8828   36.1029   10.9857 C   0  0  0  0  0  0  0  0  0  0  0  0
  1  2  2  0
  2  3  1  0
  3  4  2  0
  4  5  1  0
  5  6  2  0
  6  7  1  0
  4  8  1  0
  7  8  1  0
  1  9  1  0
  8  9  2  0
  6 10  1  0
 10 11  1  0
 11 12  1  0
 12 13  2  0
 12 14  1  0
 14 15  1  0
 15 16  1  0
 16 17  2  0
 11 18  1  0
 16 18  1  0
  5 19  1  0
 18 19  1  6
 15 20  1  0
 10 21  1  6
 21 22  2  0
 22 23  1  0
 23 24  2  0
 24 25  1  0
 25 26  1  0
 26 27  1  0
 24 28  1  0
 27 28  1  0
 21 29  1  0
 28 29  2  0
M  END
$$$$
