1XOZ_CIA_A_501
     RDKit          3D

 29 34  0  0  0  0  0  0  0  0999 V2000
   50.3322   53.6007   30.6384 C   0  0  0  0  0  0  0  0  0  0  0  0
   50.0725   54.2150   31.8511 C   0  0  0  0  0  0  0  0  0  0  0  0
   50.1973   53.4420   32.9991 C   0  0  0  0  0  0  0  0  0  0  0  0
   50.5661   52.1130   32.9313 C   0  0  0  0  0  0  0  0  0  0  0  0
   50.7634   51.1279   33.8874 C   0  0  0  0  0  0  0  0  0  0  0  0
   51.1348   49.9406   33.2796 C   0  0  0  0  0  0  0  0  0  0  0  0
   51.1584   50.2159   31.9622 N   0  0  0  0  0  0  0  0  0  0  0  0
   50.8254   51.4972   31.7293 C   0  0  0  0  0  0  0  0  0  0  0  0
   50.6991   52.2733   30.5889 C   0  0  0  0  0  0  0  0  0  0  0  0
   51.4075   48.7095   34.0604 C   0  0  2  0  0  0  0  0  0  0  0  0
   51.2715   49.0045   35.4637 N   0  0  0  0  0  0  0  0  0  0  0  0
   52.1238   48.5524   36.4838 C   0  0  0  0  0  0  0  0  0  0  0  0
   53.3755   48.5630   36.2246 O   0  0  0  0  0  0  0  0  0  0  0  0
   51.5634   48.1018   37.7628 C   0  0  0  0  0  0  0  0  0  0  0  0
   50.3518   48.7952   38.1065 N   0  0  0  0  0  0  0  0  0  0  0  0
   49.8731   49.8421   37.2719 C   0  0  0  0  0  0  0  0  0  0  0  0
   49.2019   50.7817   37.7707 O   0  0  0  0  0  0  0  0  0  0  0  0
   50.1346   49.8712   35.8287 C   0  0  1  0  0  0  0  0  0  0  0  0
   50.6025   51.2636   35.3639 C   0  0  0  0  0  0  0  0  0  0  0  0
   49.6234   48.4249   39.3017 C   0  0  0  0  0  0  0  0  0  0  0  0
   52.6076   47.9762   33.6826 C   0  0  0  0  0  0  0  0  0  0  0  0
   52.4650   46.6376   33.3198 C   0  0  0  0  0  0  0  0  0  0  0  0
   53.5700   45.8925   32.9635 C   0  0  0  0  0  0  0  0  0  0  0  0
   54.8515   46.3986   32.9407 C   0  0  0  0  0  0  0  0  0  0  0  0
   56.1063   45.8917   32.6326 O   0  0  0  0  0  0  0  0  0  0  0  0
   56.9410   47.0196   32.3303 C   0  0  0  0  0  0  0  0  0  0  0  0
   56.3578   47.9958   33.1997 O   0  0  0  0  0  0  0  0  0  0  0  0
   54.9938   47.7298   33.3017 C   0  0  0  0  0  0  0  0  0  0  0  0
   53.8900   48.4721   33.6572 C   0  0  0  0  0  0  0  0  0  0  0  0
  1  2  2  0
  2  3  1  0
  3  4  2  0
  4  5  1  0
  5  6  2  0
  6  7  1  0
  4  8  1  0
  7  8  1  0
  1  9  1  0
  8  9  2  0
  6 10  1  0
 10 11  1  0
 11 12  1  0
 12 13  2  0
 12 14  1  0
 14 15  1  0
 15 16  1  0
 16 17  2  0
 11 18  1  0
 16 18  1  0
  5 19  1  0
 18 19  1  1
 15 20  1  0
 10 21  1  1
 21 22  2  0
 22 23  1  0
 23 24  2  0
 24 25  1  0
 25 26  1  0
 26 27  1  0
 24 28  1  0
 27 28  1  0
 21 29  1  0
 28 29  2  0
M  END
$$$$
