1XOZ_CIA_A_501
     RDKit          3D

 29 34  0  0  0  0  0  0  0  0999 V2000
   50.5190   33.6715    8.8111 C   0  0  0  0  0  0  0  0  0  0  0  0
   50.6686   32.6104    9.6871 C   0  0  0  0  0  0  0  0  0  0  0  0
   49.9060   32.6277   10.8486 C   0  0  0  0  0  0  0  0  0  0  0  0
   49.0333   33.6637   11.1171 C   0  0  0  0  0  0  0  0  0  0  0  0
   48.1702   33.9355   12.1683 C   0  0  0  0  0  0  0  0  0  0  0  0
   47.5076   35.1305   11.9446 C   0  0  0  0  0  0  0  0  0  0  0  0
   47.9749   35.5722   10.7621 N   0  0  0  0  0  0  0  0  0  0  0  0
   48.8804   34.7206   10.2506 C   0  0  0  0  0  0  0  0  0  0  0  0
   49.6435   34.6971    9.0948 C   0  0  0  0  0  0  0  0  0  0  0  0
   46.5224   35.6756   12.9100 C   0  0  2  0  0  0  0  0  0  0  0  0
   46.3744   34.7489   14.0027 N   0  0  0  0  0  0  0  0  0  0  0  0
   45.1631   34.3868   14.6134 C   0  0  0  0  0  0  0  0  0  0  0  0
   44.1676   34.1992   13.8338 O   0  0  0  0  0  0  0  0  0  0  0  0
   45.0906   34.2424   16.0718 C   0  0  0  0  0  0  0  0  0  0  0  0
   46.3331   33.7977   16.6423 N   0  0  0  0  0  0  0  0  0  0  0  0
   47.4300   33.4829   15.7942 C   0  0  0  0  0  0  0  0  0  0  0  0
   48.2727   32.6220   16.1560 O   0  0  0  0  0  0  0  0  0  0  0  0
   47.6220   34.1323   14.4928 C   0  0  1  0  0  0  0  0  0  0  0  0
   47.9541   33.1086   13.3904 C   0  0  0  0  0  0  0  0  0  0  0  0
   46.4628   33.6721   18.0788 C   0  0  0  0  0  0  0  0  0  0  0  0
   45.2820   36.1734   12.3316 C   0  0  0  0  0  0  0  0  0  0  0  0
   44.4405   36.9281   13.1477 C   0  0  0  0  0  0  0  0  0  0  0  0
   43.2478   37.4153   12.6547 C   0  0  0  0  0  0  0  0  0  0  0  0
   42.8152   37.1995   11.3642 C   0  0  0  0  0  0  0  0  0  0  0  0
   41.6962   37.5597   10.6264 O   0  0  0  0  0  0  0  0  0  0  0  0
   42.0658   37.4544    9.2434 C   0  0  0  0  0  0  0  0  0  0  0  0
   43.0022   36.3745    9.3217 O   0  0  0  0  0  0  0  0  0  0  0  0
   43.6517   36.4488   10.5523 C   0  0  0  0  0  0  0  0  0  0  0  0
   44.8418   35.9631   11.0459 C   0  0  0  0  0  0  0  0  0  0  0  0
  1  2  2  0
  2  3  1  0
  3  4  2  0
  4  5  1  0
  5  6  2  0
  6  7  1  0
  4  8  1  0
  7  8  1  0
  1  9  1  0
  8  9  2  0
  6 10  1  0
 10 11  1  0
 11 12  1  0
 12 13  2  0
 12 14  1  0
 14 15  1  0
 15 16  1  0
 16 17  2  0
 11 18  1  0
 16 18  1  0
  5 19  1  0
 18 19  1  6
 15 20  1  0
 10 21  1  6
 21 22  2  0
 22 23  1  0
 23 24  2  0
 24 25  1  0
 25 26  1  0
 26 27  1  0
 24 28  1  0
 27 28  1  0
 21 29  1  0
 28 29  2  0
M  END
$$$$
