1XOZ_CIA_A_501
     RDKit          3D

 29 34  0  0  0  0  0  0  0  0999 V2000
   29.9814   45.3799   36.5343 C   0  0  0  0  0  0  0  0  0  0  0  0
   30.2167   46.7437   36.5474 C   0  0  0  0  0  0  0  0  0  0  0  0
   30.7900   47.2828   37.6927 C   0  0  0  0  0  0  0  0  0  0  0  0
   31.1118   46.4877   38.7749 C   0  0  0  0  0  0  0  0  0  0  0  0
   31.6776   46.7473   40.0143 C   0  0  0  0  0  0  0  0  0  0  0  0
   31.7878   45.5752   40.7432 C   0  0  0  0  0  0  0  0  0  0  0  0
   31.2878   44.6172   39.9408 N   0  0  0  0  0  0  0  0  0  0  0  0
   30.8804   45.1321   38.7678 C   0  0  0  0  0  0  0  0  0  0  0  0
   30.3088   44.6013   37.6231 C   0  0  0  0  0  0  0  0  0  0  0  0
   32.3555   45.5521   42.1133 C   0  0  2  0  0  0  0  0  0  0  0  0
   32.7820   46.8818   42.4666 N   0  0  0  0  0  0  0  0  0  0  0  0
   33.9709   47.2114   43.1368 C   0  0  0  0  0  0  0  0  0  0  0  0
   35.0187   46.5700   42.7838 O   0  0  0  0  0  0  0  0  0  0  0  0
   33.9639   48.2437   44.1795 C   0  0  0  0  0  0  0  0  0  0  0  0
   32.9811   49.2644   43.9356 N   0  0  0  0  0  0  0  0  0  0  0  0
   32.2042   49.2302   42.7452 C   0  0  0  0  0  0  0  0  0  0  0  0
   31.7774   50.3032   42.2466 O   0  0  0  0  0  0  0  0  0  0  0  0
   31.8749   47.9735   42.0638 C   0  0  1  0  0  0  0  0  0  0  0  0
   32.1113   48.0720   40.5445 C   0  0  0  0  0  0  0  0  0  0  0  0
   32.7860   50.3234   44.9033 C   0  0  0  0  0  0  0  0  0  0  0  0
   33.3146   44.4894   42.3804 C   0  0  0  0  0  0  0  0  0  0  0  0
   34.4553   44.4263   41.5813 C   0  0  0  0  0  0  0  0  0  0  0  0
   35.3916   43.4335   41.7834 C   0  0  0  0  0  0  0  0  0  0  0  0
   35.2726   42.4647   42.7561 C   0  0  0  0  0  0  0  0  0  0  0  0
   36.0377   41.3826   43.1685 O   0  0  0  0  0  0  0  0  0  0  0  0
   35.6298   41.0802   44.5111 C   0  0  0  0  0  0  0  0  0  0  0  0
   34.2514   41.4595   44.4395 O   0  0  0  0  0  0  0  0  0  0  0  0
   34.1382   42.5269   43.5511 C   0  0  0  0  0  0  0  0  0  0  0  0
   33.2046   43.5183   43.3480 C   0  0  0  0  0  0  0  0  0  0  0  0
  1  2  2  0
  2  3  1  0
  3  4  2  0
  4  5  1  0
  5  6  2  0
  6  7  1  0
  4  8  1  0
  7  8  1  0
  1  9  1  0
  8  9  2  0
  6 10  1  0
 10 11  1  0
 11 12  1  0
 12 13  2  0
 12 14  1  0
 14 15  1  0
 15 16  1  0
 16 17  2  0
 11 18  1  0
 16 18  1  0
  5 19  1  0
 18 19  1  6
 15 20  1  0
 10 21  1  6
 21 22  2  0
 22 23  1  0
 23 24  2  0
 24 25  1  0
 25 26  1  0
 26 27  1  0
 24 28  1  0
 27 28  1  0
 21 29  1  0
 28 29  2  0
M  END
$$$$
