1XOZ_CIA_A_501
     RDKit          3D

 29 34  0  0  0  0  0  0  0  0999 V2000
   42.4926   37.8272   10.3203 C   0  0  0  0  0  0  0  0  0  0  0  0
   42.3093   38.0162   11.6791 C   0  0  0  0  0  0  0  0  0  0  0  0
   43.1512   37.3231   12.5404 C   0  0  0  0  0  0  0  0  0  0  0  0
   44.1319   36.4790   12.0582 C   0  0  0  0  0  0  0  0  0  0  0  0
   45.0889   35.6819   12.6686 C   0  0  0  0  0  0  0  0  0  0  0  0
   45.8405   35.0214   11.7116 C   0  0  0  0  0  0  0  0  0  0  0  0
   45.3325   35.4226   10.5314 N   0  0  0  0  0  0  0  0  0  0  0  0
   44.3188   36.2871   10.7093 C   0  0  0  0  0  0  0  0  0  0  0  0
   43.4763   36.9810    9.8564 C   0  0  0  0  0  0  0  0  0  0  0  0
   46.9377   34.0928   12.0770 C   0  0  2  0  0  0  0  0  0  0  0  0
   47.0777   34.0733   13.5105 N   0  0  0  0  0  0  0  0  0  0  0  0
   48.2912   34.0777   14.2167 C   0  0  0  0  0  0  0  0  0  0  0  0
   49.2073   34.8477   13.7674 O   0  0  0  0  0  0  0  0  0  0  0  0
   48.4539   33.2280   15.4018 C   0  0  0  0  0  0  0  0  0  0  0  0
   47.2197   33.0361   16.1139 N   0  0  0  0  0  0  0  0  0  0  0  0
   46.0409   33.7036   15.6819 C   0  0  0  0  0  0  0  0  0  0  0  0
   45.1509   34.0044   16.5183 O   0  0  0  0  0  0  0  0  0  0  0  0
   45.8170   34.0614   14.2769 C   0  0  1  0  0  0  0  0  0  0  0  0
   45.3149   35.5108   14.1328 C   0  0  0  0  0  0  0  0  0  0  0  0
   47.1817   32.1636   17.2687 C   0  0  0  0  0  0  0  0  0  0  0  0
   48.1741   34.2503   11.3238 C   0  0  0  0  0  0  0  0  0  0  0  0
   48.6826   33.1308   10.6665 C   0  0  0  0  0  0  0  0  0  0  0  0
   49.8564   33.2207    9.9473 C   0  0  0  0  0  0  0  0  0  0  0  0
   50.5874   34.3829    9.8297 C   0  0  0  0  0  0  0  0  0  0  0  0
   51.7643   34.7468    9.1902 O   0  0  0  0  0  0  0  0  0  0  0  0
   51.7250   36.1738    9.0407 C   0  0  0  0  0  0  0  0  0  0  0  0
   50.9856   36.5229   10.2156 O   0  0  0  0  0  0  0  0  0  0  0  0
   50.0821   35.4964   10.4834 C   0  0  0  0  0  0  0  0  0  0  0  0
   48.9105   35.4051   11.2009 C   0  0  0  0  0  0  0  0  0  0  0  0
  1  2  2  0
  2  3  1  0
  3  4  2  0
  4  5  1  0
  5  6  2  0
  6  7  1  0
  4  8  1  0
  7  8  1  0
  1  9  1  0
  8  9  2  0
  6 10  1  0
 10 11  1  0
 11 12  1  0
 12 13  2  0
 12 14  1  0
 14 15  1  0
 15 16  1  0
 16 17  2  0
 11 18  1  0
 16 18  1  0
  5 19  1  0
 18 19  1  1
 15 20  1  0
 10 21  1  6
 21 22  2  0
 22 23  1  0
 23 24  2  0
 24 25  1  0
 25 26  1  0
 26 27  1  0
 24 28  1  0
 27 28  1  0
 21 29  1  0
 28 29  2  0
M  END
$$$$
