1XOZ_CIA_A_501
     RDKit          3D

 29 34  0  0  0  0  0  0  0  0999 V2000
   35.2921   47.8357   39.6044 C   0  0  0  0  0  0  0  0  0  0  0  0
   36.3525   48.1925   40.4193 C   0  0  0  0  0  0  0  0  0  0  0  0
   36.7610   47.2719   41.3767 C   0  0  0  0  0  0  0  0  0  0  0  0
   36.1328   46.0494   41.5090 C   0  0  0  0  0  0  0  0  0  0  0  0
   36.3231   44.9656   42.3534 C   0  0  0  0  0  0  0  0  0  0  0  0
   35.4055   43.9696   42.0654 C   0  0  0  0  0  0  0  0  0  0  0  0
   34.6677   44.4579   41.0511 N   0  0  0  0  0  0  0  0  0  0  0  0
   35.0788   45.6893   40.7023 C   0  0  0  0  0  0  0  0  0  0  0  0
   34.6767   46.6114   39.7501 C   0  0  0  0  0  0  0  0  0  0  0  0
   35.3711   42.6914   42.8169 C   0  0  2  0  0  0  0  0  0  0  0  0
   36.4385   42.6871   43.7841 N   0  0  0  0  0  0  0  0  0  0  0  0
   37.2738   41.5980   44.0797 C   0  0  0  0  0  0  0  0  0  0  0  0
   37.6755   40.9035   43.0845 O   0  0  0  0  0  0  0  0  0  0  0  0
   37.6404   41.3104   45.4711 C   0  0  0  0  0  0  0  0  0  0  0  0
   37.7128   42.4988   46.2770 N   0  0  0  0  0  0  0  0  0  0  0  0
   37.5118   43.7735   45.6800 C   0  0  0  0  0  0  0  0  0  0  0  0
   38.0773   44.7869   46.1651 O   0  0  0  0  0  0  0  0  0  0  0  0
   36.6575   43.9576   44.5017 C   0  0  1  0  0  0  0  0  0  0  0  0
   37.3393   44.8387   43.4375 C   0  0  0  0  0  0  0  0  0  0  0  0
   37.9901   42.3931   47.6941 C   0  0  0  0  0  0  0  0  0  0  0  0
   35.2476   41.4871   42.0074 C   0  0  0  0  0  0  0  0  0  0  0  0
   34.1600   40.6491   42.2495 C   0  0  0  0  0  0  0  0  0  0  0  0
   33.9999   39.4896   41.5195 C   0  0  0  0  0  0  0  0  0  0  0  0
   34.8727   39.0881   40.5315 C   0  0  0  0  0  0  0  0  0  0  0  0
   34.9528   38.0049   39.6675 O   0  0  0  0  0  0  0  0  0  0  0  0
   35.7936   38.4115   38.5775 C   0  0  0  0  0  0  0  0  0  0  0  0
   36.6729   39.3062   39.2671 O   0  0  0  0  0  0  0  0  0  0  0  0
   35.9546   39.9212   40.2905 C   0  0  0  0  0  0  0  0  0  0  0  0
   36.1131   41.0780   41.0201 C   0  0  0  0  0  0  0  0  0  0  0  0
  1  2  2  0
  2  3  1  0
  3  4  2  0
  4  5  1  0
  5  6  2  0
  6  7  1  0
  4  8  1  0
  7  8  1  0
  1  9  1  0
  8  9  2  0
  6 10  1  0
 10 11  1  0
 11 12  1  0
 12 13  2  0
 12 14  1  0
 14 15  1  0
 15 16  1  0
 16 17  2  0
 11 18  1  0
 16 18  1  0
  5 19  1  0
 18 19  1  6
 15 20  1  0
 10 21  1  6
 21 22  2  0
 22 23  1  0
 23 24  2  0
 24 25  1  0
 25 26  1  0
 26 27  1  0
 24 28  1  0
 27 28  1  0
 21 29  1  0
 28 29  2  0
M  END
$$$$
