1XOZ_CIA_A_501
     RDKit          3D

 29 34  0  0  0  0  0  0  0  0999 V2000
   42.2538   37.6373    9.7752 C   0  0  0  0  0  0  0  0  0  0  0  0
   41.9894   37.7547   11.1287 C   0  0  0  0  0  0  0  0  0  0  0  0
   42.8563   37.1162   12.0073 C   0  0  0  0  0  0  0  0  0  0  0  0
   43.9389   36.3933   11.5467 C   0  0  0  0  0  0  0  0  0  0  0  0
   44.9424   35.6726   12.1770 C   0  0  0  0  0  0  0  0  0  0  0  0
   45.8007   35.1276   11.2372 C   0  0  0  0  0  0  0  0  0  0  0  0
   45.3101   35.5213   10.0472 N   0  0  0  0  0  0  0  0  0  0  0  0
   44.2067   36.2731   10.2032 C   0  0  0  0  0  0  0  0  0  0  0  0
   43.3387   36.9119    9.3329 C   0  0  0  0  0  0  0  0  0  0  0  0
   46.9683   34.2996   11.6257 C   0  0  2  0  0  0  0  0  0  0  0  0
   47.0428   34.2390   13.0629 N   0  0  0  0  0  0  0  0  0  0  0  0
   48.2155   34.3371   13.8287 C   0  0  0  0  0  0  0  0  0  0  0  0
   49.0686   35.2113   13.4521 O   0  0  0  0  0  0  0  0  0  0  0  0
   48.4083   33.4628   14.9913 C   0  0  0  0  0  0  0  0  0  0  0  0
   47.1683   33.1216   15.6338 N   0  0  0  0  0  0  0  0  0  0  0  0
   45.9492   33.6844   15.1659 C   0  0  0  0  0  0  0  0  0  0  0  0
   44.9954   33.8627   15.9664 O   0  0  0  0  0  0  0  0  0  0  0  0
   45.7556   34.0720   13.7644 C   0  0  1  0  0  0  0  0  0  0  0  0
   45.1164   35.4687   13.6441 C   0  0  0  0  0  0  0  0  0  0  0  0
   47.1653   32.2059   16.7552 C   0  0  0  0  0  0  0  0  0  0  0  0
   48.2159   34.6084   10.9410 C   0  0  0  0  0  0  0  0  0  0  0  0
   48.6349   35.9380   10.9203 C   0  0  0  0  0  0  0  0  0  0  0  0
   49.8036   36.2886   10.2765 C   0  0  0  0  0  0  0  0  0  0  0  0
   50.6148   35.3820    9.6291 C   0  0  0  0  0  0  0  0  0  0  0  0
   51.8073   35.4551    8.9228 O   0  0  0  0  0  0  0  0  0  0  0  0
   52.3710   34.1351    8.9328 C   0  0  0  0  0  0  0  0  0  0  0  0
   51.1702   33.3561    8.9406 O   0  0  0  0  0  0  0  0  0  0  0  0
   50.1984   34.0596    9.6494 C   0  0  0  0  0  0  0  0  0  0  0  0
   49.0317   33.7114   10.2921 C   0  0  0  0  0  0  0  0  0  0  0  0
  1  2  2  0
  2  3  1  0
  3  4  2  0
  4  5  1  0
  5  6  2  0
  6  7  1  0
  4  8  1  0
  7  8  1  0
  1  9  1  0
  8  9  2  0
  6 10  1  0
 10 11  1  0
 11 12  1  0
 12 13  2  0
 12 14  1  0
 14 15  1  0
 15 16  1  0
 16 17  2  0
 11 18  1  0
 16 18  1  0
  5 19  1  0
 18 19  1  1
 15 20  1  0
 10 21  1  1
 21 22  2  0
 22 23  1  0
 23 24  2  0
 24 25  1  0
 25 26  1  0
 26 27  1  0
 24 28  1  0
 27 28  1  0
 21 29  1  0
 28 29  2  0
M  END
$$$$
