1MEH_MOA_A_600
     RDKit          3D

 43 44  0  0  0  0  0  0  0  0999 V2000
   70.8310   54.5717   17.9371 C   0  0  0  0  0  0  0  0  0  0  0  0
   64.7071   56.1512   17.8962 C   0  0  0  0  0  0  0  0  0  0  0  0
   63.6605   56.9962   18.0350 C   0  0  0  0  0  0  0  0  0  0  0  0
   62.2994   56.4300   18.3866 C   0  0  2  0  0  0  0  0  0  0  0  0
   61.1601   57.3658   17.9632 C   0  0  2  0  0  0  0  0  0  0  0  0
   60.2392   56.6997   16.9875 C   0  0  0  0  0  0  0  0  0  0  0  0
   67.1084   51.6412   18.3822 C   0  0  2  0  0  0  0  0  0  0  0  0
   64.4650   53.8564   19.0336 C   0  0  2  0  0  0  0  0  0  0  0  0
   63.8071   58.4863   17.8466 C   0  0  1  0  0  0  0  0  0  0  0  0
   70.1007   52.4082   18.2629 C   0  0  2  0  0  0  0  0  0  0  0  0
   68.9371   53.3490   18.0933 C   0  0  0  0  0  0  0  0  0  0  0  0
   67.5684   53.0508   18.1237 C   0  0  0  0  0  0  0  0  0  0  0  0
   66.6479   54.1064   17.8941 C   0  0  0  0  0  0  0  0  0  0  0  0
   67.1121   55.4415   17.7244 C   0  0  0  0  0  0  0  0  0  0  0  0
   68.5022   55.7120   17.7411 C   0  0  0  0  0  0  0  0  0  0  0  0
   69.3840   54.6368   17.9055 C   0  0  0  0  0  0  0  0  0  0  0  0
   66.1167   56.5728   17.5581 C   0  0  2  0  0  0  0  0  0  0  0  0
   71.6283   55.5346   17.7954 O   0  0  0  0  0  0  0  0  0  0  0  0
   71.2381   53.2627   18.1409 O   0  0  0  0  0  0  0  0  0  0  0  0
   65.2699   53.8583   17.8579 O   0  0  0  0  0  0  0  0  0  0  0  0
   68.9657   57.0211   17.5941 O   0  0  0  0  0  0  0  0  0  0  0  0
   60.3633   55.3368   16.7377 O   0  0  0  0  0  0  0  0  0  0  0  0
   59.3782   57.3785   16.3665 O   0  0  0  0  0  0  0  0  0  0  0  0
   64.5432   55.0879   18.0518 H   0  0  0  0  0  0  0  0  0  0  0  0
   62.2449   56.2636   19.4848 H   0  0  0  0  0  0  0  0  0  0  0  0
   62.1505   55.4357   17.9120 H   0  0  0  0  0  0  0  0  0  0  0  0
   61.5713   58.3003   17.5230 H   0  0  0  0  0  0  0  0  0  0  0  0
   60.5762   57.6517   18.8642 H   0  0  0  0  0  0  0  0  0  0  0  0
   67.6928   50.9159   17.7792 H   0  0  0  0  0  0  0  0  0  0  0  0
   66.0357   51.5450   18.1143 H   0  0  0  0  0  0  0  0  0  0  0  0
   67.2553   51.3632   19.4467 H   0  0  0  0  0  0  0  0  0  0  0  0
   65.0119   53.4168   19.8900 H   0  0  0  0  0  0  0  0  0  0  0  0
   63.5329   53.2788   18.8589 H   0  0  0  0  0  0  0  0  0  0  0  0
   64.1947   54.9014   19.2881 H   0  0  0  0  0  0  0  0  0  0  0  0
   64.6170   58.8783   18.4960 H   0  0  0  0  0  0  0  0  0  0  0  0
   64.0282   58.7133   16.7842 H   0  0  0  0  0  0  0  0  0  0  0  0
   62.8733   59.0201   18.1205 H   0  0  0  0  0  0  0  0  0  0  0  0
   70.1082   51.6414   17.4600 H   0  0  0  0  0  0  0  0  0  0  0  0
   70.0876   51.9392   19.2692 H   0  0  0  0  0  0  0  0  0  0  0  0
   66.4126   57.3927   18.2474 H   0  0  0  0  0  0  0  0  0  0  0  0
   66.1358   57.0141   16.5403 H   0  0  0  0  0  0  0  0  0  0  0  0
   69.5760   57.4690   18.2630 H   0  0  0  0  0  0  0  0  0  0  0  0
   59.7798   54.6650   17.2220 H   0  0  0  0  0  0  0  0  0  0  0  0
  2  3  2  0
  3  4  1  0
  4  5  1  0
  5  6  1  0
  3  9  1  0
 10 11  1  0
  7 12  1  0
 11 12  1  0
 12 13  2  0
 13 14  1  0
 14 15  2  0
  1 16  1  0
 11 16  2  0
 15 16  1  0
  2 17  1  0
 14 17  1  0
  1 18  2  0
  1 19  1  0
 10 19  1  0
  8 20  1  0
 13 20  1  0
 15 21  1  0
  6 22  1  0
  6 23  2  0
  2 24  1  0
  4 25  1  1
  4 26  1  0
  5 27  1  6
  5 28  1  0
  7 29  1  6
  7 30  1  0
  7 31  1  0
  8 32  1  1
  8 33  1  0
  8 34  1  0
  9 35  1  1
  9 36  1  0
  9 37  1  0
 10 38  1  6
 10 39  1  0
 17 40  1  1
 17 41  1  0
 21 42  1  0
 22 43  1  0
M  END
