7N7B_T3F_A_302
     RDKit          3D

 62 64  0  0  0  0  0  0  0  0999 V2000
   46.1274  -16.0596    6.0126 O   0  0  0  0  0  0  0  0  0  0  0  0
   45.0477  -16.5861    5.1259 P   0  0  2  0  0  5  0  0  0  0  0  0
   45.0330  -18.0145    4.6500 O   0  0  0  0  0  0  0  0  0  0  0  0
   44.9449  -15.5721    3.8888 O   0  0  0  0  0  0  0  0  0  0  0  0
   46.0280  -15.2984    3.0339 C   0  0  1  0  0  0  0  0  0  0  0  0
   46.4896  -13.9617    3.1133 O   0  0  0  0  0  0  0  0  0  0  0  0
   46.9795  -13.5863    4.4238 C   0  0  2  0  0  0  0  0  0  0  0  0
   47.2757  -12.1064    4.3522 C   0  0  0  0  0  0  0  0  0  0  0  0
   47.1247  -16.2788    3.3930 C   0  0  2  0  0  0  0  0  0  0  0  0
   46.5496  -17.5701    3.4899 O   0  0  0  0  0  0  0  0  0  0  0  0
   47.8388  -15.9237    4.6875 C   0  0  1  0  0  0  0  0  0  0  0  0
   49.0326  -16.7751    4.8225 N   0  0  0  0  0  0  0  0  0  0  0  0
   48.2002  -14.4291    4.7421 C   0  0  1  0  0  0  0  0  0  0  0  0
   49.2186  -14.1349    3.7791 O   0  0  0  0  0  0  0  0  0  0  0  0
   43.6715  -16.2539    5.8411 O   0  0  0  0  0  0  0  0  0  0  0  0
   42.2342  -16.9299    6.0111 P   0  0  1  0  0  5  0  0  0  0  0  0
   41.4372  -16.2299    4.9566 O   0  0  0  0  0  0  0  0  0  0  0  0
   42.3940  -18.4173    6.0767 O   0  0  0  0  0  0  0  0  0  0  0  0
   41.7762  -16.3712    7.4218 O   0  0  0  0  0  0  0  0  0  0  0  0
   42.7959  -15.9823    8.3199 C   0  0  0  0  0  0  0  0  0  0  0  0
   43.9549  -16.9258    8.1268 C   0  0  1  0  0  0  0  0  0  0  0  0
   44.9042  -16.7496    9.2063 O   0  0  0  0  0  0  0  0  0  0  0  0
   43.6117  -18.4098    8.1462 C   0  0  1  0  0  0  0  0  0  0  0  0
   43.0538  -18.8232    6.8934 O   0  0  0  0  0  0  0  0  0  0  0  0
   44.9915  -18.9900    8.4530 C   0  0  0  0  0  0  0  0  0  0  0  0
   45.5880  -17.9707    9.4349 C   0  0  2  0  0  0  0  0  0  0  0  0
   45.4105  -18.3289   10.8503 N   0  0  0  0  0  4  0  0  0  0  0  0
   44.2311  -18.9493   11.2088 C   0  0  0  0  0  0  0  0  0  0  0  0
   43.3459  -19.2021   10.4110 O   0  0  0  0  0  0  0  0  0  0  0  0
   44.0953  -19.2027   12.5431 N   0  0  0  0  0  4  0  0  0  0  0  0
   46.3630  -18.0206   11.7956 C   0  0  0  0  0  0  0  0  0  0  0  0
   46.2316  -18.2923   13.1020 C   0  0  0  0  0  0  0  0  0  0  0  0
   47.2768  -17.9418   14.1185 C   0  0  0  0  0  0  0  0  0  0  0  0
   45.0052  -18.9294   13.5444 C   0  0  0  0  0  0  0  0  0  0  0  0
   44.7214  -19.2058   14.7073 O   0  0  0  0  0  0  0  0  0  0  0  0
   46.9920  -16.2417    5.6123 H   0  0  0  0  0  0  0  0  0  0  0  0
   45.7120  -15.4130    2.0181 H   0  0  0  0  0  0  0  0  0  0  0  0
   46.2765  -13.7612    5.2114 H   0  0  0  0  0  0  0  0  0  0  0  0
   47.9783  -11.9209    3.5670 H   0  0  0  0  0  0  0  0  0  0  0  0
   47.6877  -11.7797    5.2841 H   0  0  0  0  0  0  0  0  0  0  0  0
   46.3707  -11.5706    4.1550 H   0  0  0  0  0  0  0  0  0  0  0  0
   47.8684  -16.2447    2.6244 H   0  0  0  0  0  0  0  0  0  0  0  0
   45.8804  -17.5741    4.1921 H   0  0  0  0  0  0  0  0  0  0  0  0
   47.1825  -16.1056    5.5128 H   0  0  0  0  0  0  0  0  0  0  0  0
   49.6617  -16.6054    4.0378 H   0  0  0  0  0  0  0  0  0  0  0  0
   48.7521  -17.7557    4.8274 H   0  0  0  0  0  0  0  0  0  0  0  0
   48.5525  -14.2033    5.7268 H   0  0  0  0  0  0  0  0  0  0  0  0
   48.8920  -14.3420    2.8896 H   0  0  0  0  0  0  0  0  0  0  0  0
   41.7008  -16.5562    4.0820 H   0  0  0  0  0  0  0  0  0  0  0  0
   42.4388  -16.0438    9.3266 H   0  0  0  0  0  0  0  0  0  0  0  0
   43.0971  -14.9727    8.1331 H   0  0  0  0  0  0  0  0  0  0  0  0
   44.3267  -16.6775    7.1547 H   0  0  0  0  0  0  0  0  0  0  0  0
   42.8616  -18.7203    8.8431 H   0  0  0  0  0  0  0  0  0  0  0  0
   43.6617  -18.5874    6.1753 H   0  0  0  0  0  0  0  0  0  0  0  0
   45.5845  -19.0604    7.5652 H   0  0  0  0  0  0  0  0  0  0  0  0
   44.9512  -19.9827    8.8503 H   0  0  0  0  0  0  0  0  0  0  0  0
   46.6430  -17.9216    9.2628 H   0  0  0  0  0  0  0  0  0  0  0  0
   43.2530  -19.6287   12.8230 H   0  0  0  0  0  0  0  0  0  0  0  0
   47.2276  -17.5536   11.4806 H   0  0  0  0  0  0  0  0  0  0  0  0
   48.1103  -17.4828   13.6293 H   0  0  0  0  0  0  0  0  0  0  0  0
   47.6015  -18.8310   14.6174 H   0  0  0  0  0  0  0  0  0  0  0  0
   46.8644  -17.2617   14.8342 H   0  0  0  0  0  0  0  0  0  0  0  0
  2  1  1  1
  2  3  2  0
  2  4  1  0
  5  4  1  0
  5  6  1  0
  6  7  1  0
  7  8  1  0
  5  9  1  0
  9 10  1  0
  9 11  1  0
 11 12  1  0
  7 13  1  0
 11 13  1  0
 13 14  1  0
  2 15  1  0
 16 15  1  6
 16 17  1  0
 16 18  2  0
 16 19  1  0
 19 20  1  0
 21 20  1  0
 21 22  1  0
 21 23  1  0
 23 24  1  0
 23 25  1  0
 22 26  1  0
 25 26  1  0
 26 27  1  0
 27 28  4  0
 28 29  2  0
 28 30  4  0
 27 31  4  0
 31 32  4  0
 32 33  1  0
 30 34  4  0
 32 34  4  0
 34 35  2  0
  1 36  1  0
  5 37  1  6
  7 38  1  1
  8 39  1  0
  8 40  1  0
  8 41  1  0
  9 42  1  6
 10 43  1  0
 11 44  1  1
 12 45  1  0
 12 46  1  0
 13 47  1  1
 14 48  1  0
 17 49  1  0
 20 50  1  0
 20 51  1  0
 21 52  1  6
 23 53  1  1
 24 54  1  0
 25 55  1  0
 25 56  1  0
 26 57  1  6
 30 58  1  0
 31 59  1  0
 33 60  1  0
 33 61  1  0
 33 62  1  0
M  CHG  2  27   1  30   1
M  END
