7O1T_5X8_A_407
     RDKit          3D

 25 27  0  0  0  0  0  0  0  0999 V2000
  -12.0192   11.8277  -27.3300 N   0  0  0  0  0  0  0  0  0  0  0  0
  -12.4031   11.8619  -25.0435 C   0  0  0  0  0  0  0  0  0  0  0  0
  -12.8474   12.5946  -23.0374 C   0  0  0  0  0  0  0  0  0  0  0  0
  -12.2214   13.1731  -27.3587 C   0  0  0  0  0  0  0  0  0  0  0  0
  -12.1028   11.1324  -26.1787 C   0  0  0  0  0  0  0  0  0  0  0  0
  -12.5129   13.8816  -26.2564 N   0  0  0  0  0  0  0  0  0  0  0  0
  -12.6068   13.2329  -25.0864 C   0  0  0  0  0  0  0  0  0  0  0  0
   -7.8041   14.5373  -20.3876 O   0  0  0  0  0  0  0  0  0  0  0  0
   -8.6081   13.6084  -19.7527 C   0  0  0  0  0  0  0  0  0  0  0  0
   -8.0684   12.6765  -19.1096 O   0  0  0  0  0  0  0  0  0  0  0  0
  -10.0771   13.7809  -19.8780 C   0  0  1  0  0  0  0  0  0  0  0  0
  -10.7990   12.7047  -19.2410 N   0  0  0  0  0  0  0  0  0  0  0  0
  -10.5327   15.1462  -19.4532 C   0  0  0  0  0  0  0  0  0  0  0  0
  -12.3003   15.4016  -19.5159 S   0  0  0  0  0  0  0  0  0  0  0  0
  -12.8016   16.8533  -20.4384 C   0  0  0  0  0  0  0  0  0  0  0  0
  -13.0841   16.5843  -21.8829 C   0  0  1  0  0  0  0  0  0  0  0  0
  -12.5221   15.3444  -22.2070 O   0  0  0  0  0  0  0  0  0  0  0  0
  -14.5237   16.5344  -22.2541 C   0  0  1  0  0  0  0  0  0  0  0  0
  -14.7614   17.4877  -23.2554 O   0  0  0  0  0  0  0  0  0  0  0  0
  -14.6208   15.1801  -22.9692 C   0  0  1  0  0  0  0  0  0  0  0  0
  -15.3830   15.2624  -24.1273 O   0  0  0  0  0  0  0  0  0  0  0  0
  -13.1608   15.0012  -23.3770 C   0  0  2  0  0  0  0  0  0  0  0  0
  -12.8800   13.6840  -23.8528 N   0  0  0  0  0  0  0  0  0  0  0  0
  -12.5598   11.5035  -23.7630 N   0  0  0  0  0  0  0  0  0  0  0  0
  -11.8989    9.7246  -26.1053 N   0  0  0  0  0  0  0  0  0  0  0  0
  1  4  2  0
  1  5  1  0
  2  5  2  0
  4  6  1  0
  6  7  2  0
  2  7  1  0
  8  9  1  0
  9 10  2  0
  9 11  1  0
 11 12  1  1
 11 13  1  0
 13 14  1  1
 15 14  1  6
 16 15  1  0
 16 17  1  1
 16 18  1  0
 18 19  1  6
 18 20  1  0
 20 21  1  6
 17 22  1  0
 20 22  1  0
 22 23  1  1
  7 23  1  0
  3 23  1  0
  2 24  1  0
  3 24  2  0
  5 25  1  0
M  END
$$$$
