1M2Z_DEX_A_301
     RDKit          3D

 28 31  0  0  0  0  0  0  0  0999 V2000
   18.9153   25.6335   -9.7064 C   0  0  0  0  0  0  0  0  0  0  0  0
   19.7737   25.8174   -8.7334 C   0  0  0  0  0  0  0  0  0  0  0  0
   20.8703   26.7531   -8.9286 C   0  0  0  0  0  0  0  0  0  0  0  0
   20.9336   27.4247  -10.2199 C   0  0  0  0  0  0  0  0  0  0  0  0
   20.0369   27.1774  -11.1304 C   0  0  0  0  0  0  0  0  0  0  0  0
   20.0757   27.8599  -12.4998 C   0  0  0  0  0  0  0  0  0  0  0  0
   20.3730   26.7661  -13.4996 C   0  0  0  0  0  0  0  0  0  0  0  0
   19.2421   25.8124  -13.4678 C   0  0  2  0  0  0  0  0  0  0  0  0
   18.8643   25.2477  -12.1194 C   0  0  1  0  0  0  0  0  0  0  0  0
   18.8777   26.2497  -11.0205 C   0  0  1  0  0  0  0  0  0  0  0  0
   17.6162   24.4622  -12.2525 C   0  0  2  0  0  0  0  0  0  0  0  0
   17.5044   23.5448  -13.4112 C   0  0  0  0  0  0  0  0  0  0  0  0
   18.0330   24.1404  -14.7072 C   0  0  1  0  0  0  0  0  0  0  0  0
   19.4200   24.6101  -14.3169 C   0  0  1  0  0  0  0  0  0  0  0  0
   20.1700   24.6623  -15.5666 C   0  0  0  0  0  0  0  0  0  0  0  0
   19.8429   23.2302  -16.0635 C   0  0  2  0  0  0  0  0  0  0  0  0
   18.3504   23.1086  -15.7308 C   0  0  2  0  0  0  0  0  0  0  0  0
   17.1450   25.1986  -15.2504 C   0  0  0  0  0  0  0  0  0  0  0  0
   17.5835   27.0874  -10.9950 C   0  0  0  0  0  0  0  0  0  0  0  0
   17.6541   23.2179  -17.0289 C   0  0  0  0  0  0  0  0  0  0  0  0
   16.7644   22.2343  -17.6438 C   0  0  0  0  0  0  0  0  0  0  0  0
   20.5663   22.2519  -15.1653 C   0  0  0  0  0  0  0  0  0  0  0  0
   19.8542   24.3031  -11.8147 F   0  0  0  0  0  0  0  0  0  0  0  0
   21.7430   27.0162   -8.0861 O   0  0  0  0  0  0  0  0  0  0  0  0
   16.4314   25.2019  -12.2077 O   0  0  0  0  0  0  0  0  0  0  0  0
   18.0454   21.8319  -15.2001 O   0  0  0  0  0  0  0  0  0  0  0  0
   17.8480   24.2690  -17.6587 O   0  0  0  0  0  0  0  0  0  0  0  0
   15.7266   22.9479  -18.3017 O   0  0  0  0  0  0  0  0  0  0  0  0
  1  2  2  0
  2  3  1  0
  3  4  1  0
  4  5  2  0
  6  5  1  1
  7  6  1  6
  8  7  1  1
  8  9  1  0
 10  1  1  1
  5 10  1  0
  9 10  1  0
  9 11  1  0
 12 11  1  6
 12 13  1  0
  8 14  1  0
 13 14  1  0
 14 15  1  6
 15 16  1  6
 13 17  1  0
 16 17  1  0
 13 18  1  6
 19 10  1  1
 17 20  1  0
 20 21  1  0
 16 22  1  1
  9 23  1  1
  3 24  2  0
 11 25  1  6
 17 26  1  1
 20 27  2  0
 21 28  1  6
M  END
$$$$
