@<TRIPOS>MOLECULE
1PMN_984_A_501
 63 67 0 0 0
SMALL
GASTEIGER

@<TRIPOS>ATOM
      1 N          22.9290   10.6810   31.0540 N.ar    1  UNL1       -0.3256
      2 C          23.0120   12.0320   30.9590 C.ar    1  UNL1        0.1140
      3 N          22.0990   12.6890   31.7610 N.ar    1  UNL1       -0.2313
      4 C          21.2860   11.7150   32.5060 C.ar    1  UNL1        0.0986
      5 C          21.8180   10.3910   32.0700 C.ar    1  UNL1        0.0952
      6 C          23.8100    9.7730   30.2840 C.3     1  UNL1        0.0248
      7 C          25.0520    9.3460   31.0580 C.3     1  UNL1       -0.0378
      8 C          26.2730    9.1030   30.1750 C.3     1  UNL1       -0.0637
      9 C          23.7550   12.8320   30.2590 C.3     1  UNL1        0.0196
     10 C          22.9930   13.7550   29.2460 C.3     1  UNL1       -0.0305
     11 C          23.9490   14.6900   28.4210 C.3     1  UNL1       -0.0008
     12 N          24.8670   15.4780   29.3040 N.3     1  UNL1       -0.3053
     13 C          25.6460   14.6180   30.2170 C.3     1  UNL1       -0.0008
     14 C          24.7420   13.6940   31.1040 C.3     1  UNL1       -0.0305
     15 C          25.7710   16.3300   28.4900 C.3     1  UNL1       -0.0128
     16 C          20.2330   12.1130   33.4840 C.ar    1  UNL1        0.0040
     17 C          21.4780    8.9140   32.2260 C.ar    1  UNL1        0.0945
     18 C          20.1490   11.4870   34.7500 C.ar    1  UNL1       -0.0327
     19 C          19.1640   11.8230   35.6780 C.ar    1  UNL1        0.0599
     20 C          18.1870   12.8000   35.3520 C.ar    1  UNL1        0.0593
     21 C          18.2510   13.4610   34.0840 C.ar    1  UNL1       -0.0413
     22 C          19.2830   13.1020   33.1400 C.ar    1  UNL1       -0.0510
     23 CL         19.2050   10.9730   37.1650 Cl      1  UNL1       -0.0820
     24 CL         16.9170   13.2460   36.4370 Cl      1  UNL1       -0.0820
     25 C          20.2400    8.5980   32.8480 C.ar    1  UNL1       -0.0159
     26 C          19.9620    7.2220   33.0170 C.ar    1  UNL1        0.0333
     27 N          20.8310    6.2650   32.6340 N.ar    1  UNL1       -0.2229
     28 C          21.9780    6.6790   32.0780 C.ar    1  UNL1        0.2159
     29 N          22.3180    7.9500   31.8670 N.ar    1  UNL1       -0.2129
     30 N          22.9070    5.7760   31.6830 N.pl3   1  UNL1       -0.3106
     31 C          23.0400    5.3650   30.3010 C.3     1  UNL1        0.0234
     32 C          24.3720    4.7200   30.6710 C.3     1  UNL1       -0.0328
     33 C          24.2570    5.7910   29.6330 C.3     1  UNL1       -0.0328
     34 H          24.1208   10.2756   29.3920 H       1  UNL1        0.0492
     35 H          23.2475    8.8882   30.0702 H       1  UNL1        0.0492
     36 H          24.8285    8.4402   31.5819 H       1  UNL1        0.0280
     37 H          25.2997   10.1500   31.7191 H       1  UNL1        0.0280
     38 H          26.0679    8.3027   29.4951 H       1  UNL1        0.0230
     39 H          27.1108    8.8442   30.7882 H       1  UNL1        0.0230
     40 H          26.4963    9.9918   29.6227 H       1  UNL1        0.0230
     41 H          24.3218   12.1338   29.6792 H       1  UNL1        0.0380
     42 H          22.3074   14.3675   29.7934 H       1  UNL1        0.0284
     43 H          22.4926   13.1165   28.5483 H       1  UNL1        0.0284
     44 H          23.3552   15.3699   27.8465 H       1  UNL1        0.0427
     45 H          24.5509   14.0706   27.7893 H       1  UNL1        0.0427
     46 H          26.2300   15.2431   30.8598 H       1  UNL1        0.0427
     47 H          26.2605   13.9828   29.6138 H       1  UNL1        0.0427
     48 H          25.3716   13.0390   31.6692 H       1  UNL1        0.0284
     49 H          24.1579   14.3258   31.7401 H       1  UNL1        0.0284
     50 H          25.1886   16.9448   27.8360 H       1  UNL1        0.0391
     51 H          26.4210   15.7083   27.9104 H       1  UNL1        0.0391
     52 H          26.3547   16.9507   29.1372 H       1  UNL1        0.0391
     53 H          20.8383   10.7589   34.9943 H       1  UNL1        0.0639
     54 H          17.5621   14.1914   33.8454 H       1  UNL1        0.0633
     55 H          19.3269   13.5650   32.2188 H       1  UNL1        0.0625
     56 H          19.5822    9.3301   33.1583 H       1  UNL1        0.0655
     57 H          19.0665    6.9417   33.4466 H       1  UNL1        0.0831
     58 H          23.5106    5.3870   32.3565 H       1  UNL1        0.1492
     59 H          22.0698    5.2725   29.8594 H       1  UNL1        0.0498
     60 H          24.5825    3.7102   30.3865 H       1  UNL1        0.0284
     61 H          24.9348    4.5743   31.5693 H       1  UNL1        0.0284
     62 H          24.6558    6.7640   29.8308 H       1  UNL1        0.0284
     63 H          24.5544    5.8676   28.6080 H       1  UNL1        0.0284
@<TRIPOS>BOND
     1     1     2   ar
     2     2     3   ar
     3     3     4   ar
     4     1     5   ar
     5     4     5   ar
     6     1     6    1
     7     6     7    1
     8     7     8    1
     9     2     9    1
    10     9    10    1
    11    10    11    1
    12    11    12    1
    13    12    13    1
    14     9    14    1
    15    13    14    1
    16    12    15    1
    17     4    16    1
    18     5    17    1
    19    16    18   ar
    20    18    19   ar
    21    19    20   ar
    22    20    21   ar
    23    16    22   ar
    24    21    22   ar
    25    19    23    1
    26    20    24    1
    27    17    25   ar
    28    25    26   ar
    29    26    27   ar
    30    27    28   ar
    31    17    29   ar
    32    28    29   ar
    33    28    30    1
    34    30    31    1
    35    31    32    1
    36    31    33    1
    37    32    33    1
    38     6    34    1
    39     6    35    1
    40     7    36    1
    41     7    37    1
    42     8    38    1
    43     8    39    1
    44     8    40    1
    45     9    41    1
    46    10    42    1
    47    10    43    1
    48    11    44    1
    49    11    45    1
    50    13    46    1
    51    13    47    1
    52    14    48    1
    53    14    49    1
    54    15    50    1
    55    15    51    1
    56    15    52    1
    57    18    53    1
    58    21    54    1
    59    22    55    1
    60    25    56    1
    61    26    57    1
    62    30    58    1
    63    31    59    1
    64    32    60    1
    65    32    61    1
    66    33    62    1
    67    33    63    1
