@<TRIPOS>MOLECULE
1PMN_984_A_501
 63 67 0 0 0
SMALL
GASTEIGER

@<TRIPOS>ATOM
      1 N           0.7113   -1.9136    0.1208 N.ar    1  UNL1       -0.3256
      2 C           1.5677   -0.9060    0.4382 C.ar    1  UNL1        0.1140
      3 N           0.9316    0.2670    0.6407 N.ar    1  UNL1       -0.2313
      4 C          -0.3719   -0.0086    0.4587 C.ar    1  UNL1        0.0986
      5 C          -0.5213   -1.3500    0.1414 C.ar    1  UNL1        0.0952
      6 C           1.0621   -3.2890   -0.2585 C.3     1  UNL1        0.0248
      7 C           1.3677   -4.1299    0.9878 C.3     1  UNL1       -0.0378
      8 C           1.6386   -5.5845    0.6181 C.3     1  UNL1       -0.0637
      9 C           3.0803   -1.0298    0.5049 C.3     1  UNL1        0.0196
     10 C           3.6222   -0.6966    1.9089 C.3     1  UNL1       -0.0305
     11 C           3.7168    0.8138    2.1618 C.3     1  UNL1       -0.0008
     12 N           4.5141    1.4648    1.1053 N.3     1  UNL1       -0.3053
     13 C           3.8610    1.3010   -0.2071 C.3     1  UNL1       -0.0008
     14 C           3.7742   -0.1845   -0.5816 C.3     1  UNL1       -0.0305
     15 C           4.6745    2.8951    1.4090 C.3     1  UNL1       -0.0128
     16 C          -1.4292    1.0206    0.5401 C.ar    1  UNL1        0.0040
     17 C          -1.7781   -1.9796   -0.3249 C.ar    1  UNL1        0.0945
     18 C          -1.1968    2.3010    0.0145 C.ar    1  UNL1       -0.0327
     19 C          -2.2001    3.2767    0.0506 C.ar    1  UNL1        0.0599
     20 C          -3.4437    2.9796    0.6331 C.ar    1  UNL1        0.0593
     21 C          -3.6682    1.7126    1.1817 C.ar    1  UNL1       -0.0413
     22 C          -2.6668    0.7394    1.1412 C.ar    1  UNL1       -0.0510
     23 CL         -1.8760    4.8569   -0.6488 Cl      1  UNL1       -0.0820
     24 CL         -4.7344    4.1724    0.6879 Cl      1  UNL1       -0.0820
     25 C          -2.1855   -3.2447    0.1150 C.ar    1  UNL1       -0.0159
     26 C          -3.3995   -3.7538   -0.3471 C.ar    1  UNL1        0.0333
     27 N          -4.1750   -3.0132   -1.1809 N.ar    1  UNL1       -0.2229
     28 C          -3.7838   -1.7742   -1.5792 C.ar    1  UNL1        0.2159
     29 N          -2.5939   -1.2752   -1.1530 N.ar    1  UNL1       -0.2129
     30 N          -4.6347   -0.9907   -2.4209 N.pl3   1  UNL1       -0.3106
     31 C          -4.3933    0.4355   -2.6250 C.3     1  UNL1        0.0234
     32 C          -3.2477    0.7236   -3.5805 C.3     1  UNL1       -0.0328
     33 C          -4.6864    0.9142   -4.0358 C.3     1  UNL1       -0.0328
     34 H           1.9388   -3.2811   -0.9407 H       1  UNL1        0.0492
     35 H           0.2391   -3.7537   -0.8390 H       1  UNL1        0.0492
     36 H           0.5128   -4.0890    1.6942 H       1  UNL1        0.0280
     37 H           2.2558   -3.7233    1.5150 H       1  UNL1        0.0280
     38 H           0.7470   -6.0299    0.1273 H       1  UNL1        0.0230
     39 H           1.8651   -6.1655    1.5368 H       1  UNL1        0.0230
     40 H           2.5088   -5.6515   -0.0692 H       1  UNL1        0.0230
     41 H           3.3646   -2.0813    0.3065 H       1  UNL1        0.0380
     42 H           4.6412   -1.1312    2.0111 H       1  UNL1        0.0284
     43 H           2.9834   -1.1671    2.6882 H       1  UNL1        0.0284
     44 H           4.2110    0.9592    3.1480 H       1  UNL1        0.0427
     45 H           2.7007    1.2614    2.2313 H       1  UNL1        0.0427
     46 H           2.8491    1.7636   -0.2128 H       1  UNL1        0.0427
     47 H           4.4625    1.8118   -0.9915 H       1  UNL1        0.0427
     48 H           3.2420   -0.2957   -1.5519 H       1  UNL1        0.0284
     49 H           4.8087   -0.5678   -0.7265 H       1  UNL1        0.0284
     50 H           5.1879    3.0241    2.3861 H       1  UNL1        0.0391
     51 H           5.3118    3.3801    0.6384 H       1  UNL1        0.0391
     52 H           3.6904    3.4142    1.4453 H       1  UNL1        0.0391
     53 H          -0.2442    2.5339   -0.4467 H       1  UNL1        0.0639
     54 H          -4.6214    1.4793    1.6391 H       1  UNL1        0.0633
     55 H          -2.8582   -0.2313    1.5814 H       1  UNL1        0.0625
     56 H          -1.5949   -3.8192    0.8126 H       1  UNL1        0.0655
     57 H          -3.7336   -4.7324   -0.0291 H       1  UNL1        0.0831
     58 H          -5.5341   -1.4033   -2.7571 H       1  UNL1        0.1492
     59 H          -4.5348    1.1394   -1.7773 H       1  UNL1        0.0498
     60 H          -2.7489   -0.1680   -4.0179 H       1  UNL1        0.0284
     61 H          -2.7069    1.6707   -3.3704 H       1  UNL1        0.0284
     62 H          -5.0024    1.9765   -4.1017 H       1  UNL1        0.0284
     63 H          -5.0434    0.1361   -4.7443 H       1  UNL1        0.0284
@<TRIPOS>BOND
     1     1     2   ar
     2     2     3   ar
     3     3     4   ar
     4     1     5   ar
     5     4     5   ar
     6     1     6    1
     7     6     7    1
     8     7     8    1
     9     2     9    1
    10     9    10    1
    11    10    11    1
    12    11    12    1
    13    12    13    1
    14     9    14    1
    15    13    14    1
    16    12    15    1
    17     4    16    1
    18     5    17    1
    19    16    18   ar
    20    18    19   ar
    21    19    20   ar
    22    20    21   ar
    23    16    22   ar
    24    21    22   ar
    25    19    23    1
    26    20    24    1
    27    17    25   ar
    28    25    26   ar
    29    26    27   ar
    30    27    28   ar
    31    17    29   ar
    32    28    29   ar
    33    28    30    1
    34    30    31    1
    35    31    32    1
    36    31    33    1
    37    32    33    1
    38     6    34    1
    39     6    35    1
    40     7    36    1
    41     7    37    1
    42     8    38    1
    43     8    39    1
    44     8    40    1
    45     9    41    1
    46    10    42    1
    47    10    43    1
    48    11    44    1
    49    11    45    1
    50    13    46    1
    51    13    47    1
    52    14    48    1
    53    14    49    1
    54    15    50    1
    55    15    51    1
    56    15    52    1
    57    18    53    1
    58    21    54    1
    59    22    55    1
    60    25    56    1
    61    26    57    1
    62    30    58    1
    63    31    59    1
    64    32    60    1
    65    32    61    1
    66    33    62    1
    67    33    63    1
