
     RDKit          3D

 13 14  0  0  0  0  0  0  0  0999 V2000
 -110.2862 -176.2595  310.7982 C   0  0  0  0  0  0  0  0  0  0  0  0
 -109.0464 -175.6532  310.7090 C   0  0  0  0  0  0  0  0  0  0  0  0
 -108.6782 -174.5064  309.8215 C   0  0  0  0  0  0  0  0  0  0  0  0
 -107.7258 -174.9253  308.7828 C   0  0  0  0  0  0  0  0  0  0  0  0
 -108.1886 -176.3296  311.6382 C   0  0  0  0  0  0  0  0  0  0  0  0
 -106.8349 -176.1848  312.0080 C   0  0  0  0  0  0  0  0  0  0  0  0
 -110.2109 -177.2652  311.7238 N   0  0  0  0  0  0  0  0  0  0  0  0
 -108.4198 -178.1875  313.2284 C   0  0  0  0  0  0  0  0  0  0  0  0
 -106.3000 -177.0378  312.9788 C   0  0  0  0  0  0  0  0  0  0  0  0
 -108.9445 -177.3269  312.2565 C   0  0  0  0  0  0  0  0  0  0  0  0
 -106.9725 -175.2265  307.9515 N   0  0  0  0  0  0  0  0  0  0  0  0
 -104.6485 -176.8622  313.4377 Cl  0  0  0  0  0  0  0  0  0  0  0  0
 -107.0770 -178.0233  313.5809 C   0  0  0  0  0  0  0  0  0  0  0  0
  1  2  4  0
  2  3  1  0
  3  4  1  0
  2  5  4  0
  5  6  4  0
  1  7  4  0
  6  9  4  0
  7 10  4  0
  5 10  4  0
  8 10  4  0
  4 11  3  0
  9 12  1  0
  9 13  4  0
  8 13  4  0
M  END
