7Q27_8KC_A_707
     RDKit          3D

 35 37  0  0  0  0  0  0  0  0999 V2000
  -12.5582  -10.6244   19.9433 C   0  0  0  0  0  0  0  0  0  0  0  0
  -11.4747  -11.1284   20.9920 C   0  0  0  0  0  0  0  0  0  0  0  0
  -11.0023   -9.9359   21.8469 C   0  0  0  0  0  0  0  0  0  0  0  0
  -10.2364  -10.3917   23.0852 C   0  0  0  0  0  0  0  0  0  0  0  0
  -10.7264   -9.7284   24.3607 C   0  0  1  0  0  0  0  0  0  0  0  0
   -6.5888   -7.6572   23.2355 C   0  0  0  0  0  0  0  0  0  0  0  0
   -6.8606   -8.7077   24.1230 C   0  0  0  0  0  0  0  0  0  0  0  0
   -6.2646   -9.9446   23.9136 C   0  0  0  0  0  0  0  0  0  0  0  0
   -5.4003  -10.1440   22.8425 C   0  0  0  0  0  0  0  0  0  0  0  0
   -5.1145   -9.1047   21.9672 C   0  0  0  0  0  0  0  0  0  0  0  0
  -10.7368   -8.2149   24.2493 C   0  0  0  0  0  0  0  0  0  0  0  0
  -13.8753  -10.9549   23.1366 C   0  0  0  0  0  0  0  0  0  0  0  0
  -15.2845  -10.4997   22.7134 C   0  0  0  0  0  0  0  0  0  0  0  0
  -15.8159  -11.1200   21.3756 C   0  0  0  0  0  0  0  0  0  0  0  0
  -16.7131  -10.3626   20.6622 C   0  0  0  0  0  0  0  0  0  0  0  0
  -17.2283  -10.8350   19.4736 C   0  0  0  0  0  0  0  0  0  0  0  0
   -9.9081   -5.9610   22.4640 C   0  0  0  0  0  0  0  0  0  0  0  0
   -9.4517   -6.1315   23.8970 C   0  0  2  0  0  0  0  0  0  0  0  0
   -8.0221   -5.5821   24.0980 C   0  0  0  0  0  0  0  0  0  0  0  0
   -7.0167   -6.3119   23.1685 C   0  0  0  0  0  0  0  0  0  0  0  0
   -6.3667   -5.7709   22.0605 C   0  0  0  0  0  0  0  0  0  0  0  0
   -5.7171   -7.8511   22.1790 C   0  0  0  0  0  0  0  0  0  0  0  0
  -13.0656   -9.7287   23.6173 C   0  0  1  0  0  0  0  0  0  0  0  0
  -14.0016   -8.6688   24.0887 C   0  0  0  0  0  0  0  0  0  0  0  0
  -16.8253  -12.0844   19.0061 C   0  0  0  0  0  0  0  0  0  0  0  0
  -15.9061  -12.8313   19.7288 C   0  0  0  0  0  0  0  0  0  0  0  0
  -15.4141  -12.3527   20.9235 C   0  0  0  0  0  0  0  0  0  0  0  0
   -5.6121   -6.7002   21.5012 N   0  0  0  0  0  0  0  0  0  0  0  0
   -9.4695   -7.5596   24.2368 N   0  0  0  0  0  0  0  0  0  0  0  0
  -12.1135  -10.1162   24.6774 N   0  0  0  0  0  0  0  0  0  0  0  0
  -10.7762   -6.7064   21.9091 O   0  0  0  0  0  0  0  0  0  0  0  0
   -9.4027   -5.0401   21.7634 O   0  0  0  0  0  0  0  0  0  0  0  0
  -14.6071   -8.0445   23.2208 O   0  0  0  0  0  0  0  0  0  0  0  0
  -14.1720   -8.3814   25.3033 O   0  0  0  0  0  0  0  0  0  0  0  0
  -11.7402   -7.5726   24.2220 O   0  0  0  0  0  0  0  0  0  0  0  0
  1  2  1  0
  2  3  1  0
  3  4  1  0
  5  4  1  6
  6  7  2  0
  7  8  1  0
  8  9  2  0
  9 10  1  0
  5 11  1  0
 12 13  1  0
 13 14  1  0
 14 15  2  0
 15 16  1  0
 17 18  1  0
 18 19  1  6
  6 20  1  0
 19 20  1  0
 20 21  2  0
 10 22  2  0
  6 22  1  0
 23 12  1  1
 23 24  1  0
 16 25  2  0
 25 26  1  0
 26 27  2  0
 14 27  1  0
 22 28  1  0
 21 28  1  0
 11 29  1  0
 18 29  1  0
  5 30  1  0
 23 30  1  0
 17 31  2  0
 17 32  1  0
 24 33  2  0
 24 34  1  0
 11 35  2  0
M  END
