
     RDKit          3D

 37 41  0  0  0  0  0  0  0  0999 V2000
   11.8721   45.7549   15.9846 P   0  0  1  0  0  5  0  0  0  0  0  0
   10.4977   46.5695   15.8907 O   0  0  0  0  0  0  0  0  0  0  0  0
   12.0105   44.8821   17.1851 O   0  0  0  0  0  0  0  0  0  0  0  0
   11.9182   44.9898   14.5710 O   0  0  0  0  0  0  0  0  0  0  0  0
   13.1681   44.5057   14.1050 C   0  0  0  0  0  0  0  0  0  0  0  0
   13.3259   44.7986   12.6083 C   0  0  1  0  0  0  0  0  0  0  0  0
   12.1676   44.2828   11.9063 O   0  0  0  0  0  0  0  0  0  0  0  0
   11.4716   45.3859   11.2804 C   0  0  1  0  0  0  0  0  0  0  0  0
   10.0401   45.1525   11.3664 N   0  0  0  0  0  0  0  0  0  0  0  0
    9.1715   44.9838   10.3189 C   0  0  0  0  0  0  0  0  0  0  0  0
    9.4290   45.0844    9.0008 N   0  0  0  0  0  0  0  0  0  0  0  0
    8.3114   44.8436    8.2759 C   0  0  0  0  0  0  0  0  0  0  0  0
    7.0777   44.5222    8.7189 N   0  0  0  0  0  0  0  0  0  0  0  0
    6.8692   44.4544   10.0505 C   0  0  0  0  0  0  0  0  0  0  0  0
    5.5927   44.1460   10.5020 N   0  0  0  0  0  0  0  0  0  0  0  0
    7.9538   44.6851   10.9108 C   0  0  0  0  0  0  0  0  0  0  0  0
    8.0642   44.6642   12.2830 N   0  0  0  0  0  0  0  0  0  0  0  0
    9.3290   44.9386   12.5207 C   0  0  0  0  0  0  0  0  0  0  0  0
   11.9690   46.6607   11.9701 C   0  0  2  0  0  0  0  0  0  0  0  0
   11.9360   47.8273   11.1426 O   0  0  0  0  0  0  0  0  0  0  0  0
   13.4085   46.2878   12.2795 C   0  0  2  0  0  0  0  0  0  0  0  0
   14.1984   46.4751   11.0939 O   0  0  0  0  0  0  0  0  0  0  0  0
   14.2824   50.0329   17.0126 N   0  0  0  0  0  0  0  0  0  0  0  0
   14.3591   48.7423   16.2836 C   0  0  1  0  0  0  0  0  0  0  0  0
   15.6546   47.9630   16.5658 C   0  0  0  0  0  0  0  0  0  0  0  0
   16.9099   48.7626   16.4135 C   0  0  0  0  0  0  0  0  0  0  0  0
   17.4811   49.2578   15.1971 C   0  0  0  0  0  0  0  0  0  0  0  0
   18.6202   49.9903   15.5368 C   0  0  0  0  0  0  0  0  0  0  0  0
   17.1302   49.1589   13.8345 C   0  0  0  0  0  0  0  0  0  0  0  0
   17.7158   49.2102   17.4440 C   0  0  0  0  0  0  0  0  0  0  0  0
   18.7403   49.9396   16.9057 N   0  0  0  0  0  0  0  0  0  0  0  0
   19.4262   50.6264   14.5844 C   0  0  0  0  0  0  0  0  0  0  0  0
   17.9244   49.7892   12.8690 C   0  0  0  0  0  0  0  0  0  0  0  0
   19.0557   50.5123   13.2418 C   0  0  0  0  0  0  0  0  0  0  0  0
   13.1994   47.8319   16.6914 C   0  0  0  0  0  0  0  0  0  0  0  0
   12.4852   47.9875   17.6741 O   0  0  0  0  0  0  0  0  0  0  0  0
   12.9932   46.8711   15.7704 O   0  0  0  0  0  0  0  0  0  0  0  0
  1  2  1  1
  1  3  2  0
  1  4  1  0
  4  5  1  0
  6  5  1  1
  6  7  1  0
  7  8  1  0
  8  9  1  1
  9 10  4  0
 10 11  4  0
 11 12  4  0
 12 13  4  0
 13 14  4  0
 14 15  1  0
 10 16  4  0
 14 16  4  0
 16 17  4  0
  9 18  4  0
 17 18  4  0
  8 19  1  0
 19 20  1  6
  6 21  1  0
 19 21  1  0
 21 22  1  6
 24 23  1  1
 24 25  1  0
 25 26  1  0
 26 27  4  0
 27 28  4  0
 27 29  4  0
 26 30  4  0
 28 31  4  0
 30 31  4  0
 28 32  4  0
 29 33  4  0
 32 34  4  0
 33 34  4  0
 24 35  1  0
 35 36  2  0
  1 37  1  0
 35 37  1  0
M  END
