8AEM_LVF_A_407
     RDKit          3D

 13 14  0  0  0  0  0  0  0  0999 V2000
 -134.8566 -187.0715  295.8076 C   0  0  0  0  0  0  0  0  0  0  0  0
 -134.1112 -185.9890  296.1624 C   0  0  0  0  0  0  0  0  0  0  0  0
 -133.9315 -184.6662  295.5081 C   0  0  0  0  0  0  0  0  0  0  0  0
 -132.4972 -184.4970  295.1842 C   0  0  0  0  0  0  0  0  0  0  0  0
 -133.4623 -186.3119  297.3571 C   0  0  0  0  0  0  0  0  0  0  0  0
 -132.5822 -185.5928  298.1673 C   0  0  0  0  0  0  0  0  0  0  0  0
 -134.6903 -188.0440  296.7364 N   0  0  0  0  0  0  0  0  0  0  0  0
 -133.3351 -188.1756  298.8532 C   0  0  0  0  0  0  0  0  0  0  0  0
 -132.0973 -186.1899  299.3113 C   0  0  0  0  0  0  0  0  0  0  0  0
 -133.8375 -187.6016  297.6999 C   0  0  0  0  0  0  0  0  0  0  0  0
 -131.3646 -184.3555  294.9314 N   0  0  0  0  0  0  0  0  0  0  0  0
 -130.9914 -185.3284  300.3646 Cl  0  0  0  0  0  0  0  0  0  0  0  0
 -132.4554 -187.4740  299.6762 C   0  0  0  0  0  0  0  0  0  0  0  0
  1  2  2  0
  2  3  1  0
  3  4  1  0
  2  5  1  0
  5  6  1  0
  1  7  1  0
  6  9  2  0
  7 10  1  0
  5 10  2  0
  8 10  1  0
  4 11  3  0
  9 12  1  0
  9 13  1  0
  8 13  2  0
M  END
$$$$
