7QHL_D5P_C_301
     RDKit          3D

 54 58  0  0  0  0  0  0  0  0999 V2000
   31.7920   -2.8826   18.4388 N   0  0  0  0  0  0  0  0  0  0  0  0
   25.8940   -2.8694   21.9329 N   0  0  0  0  0  0  0  0  0  0  0  0
   26.3329   -3.0936   20.5901 C   0  0  0  0  0  0  0  0  0  0  0  0
   26.2368   -1.6203   22.6118 C   0  0  2  0  0  0  0  0  0  0  0  0
   27.6378   -1.2118   22.2417 C   0  0  0  0  0  0  0  0  0  0  0  0
   27.8602   -0.3863   21.1307 C   0  0  0  0  0  0  0  0  0  0  0  0
   29.1619   -0.1170   20.7005 C   0  0  0  0  0  0  0  0  0  0  0  0
   32.0438   -0.2263   19.6583 C   0  0  0  0  0  0  0  0  0  0  0  0
   30.0365   -1.5072   22.4827 C   0  0  0  0  0  0  0  0  0  0  0  0
   25.7637   -2.4352   19.5045 C   0  0  0  0  0  0  0  0  0  0  0  0
   25.7304   -1.6075   15.9529 C   0  0  2  0  0  0  0  0  0  0  0  0
   24.4509   -1.8055   15.1484 C   0  0  2  0  0  0  0  0  0  0  0  0
   26.3108   -2.5610   18.2732 C   0  0  0  0  0  0  0  0  0  0  0  0
   31.0280   -2.6640   19.6646 C   0  0  1  0  0  0  0  0  0  0  0  0
   30.4264   -3.9778   20.1711 C   0  0  1  0  0  0  0  0  0  0  0  0
   29.5038   -4.8716   18.8618 S   0  0  0  0  0  0  0  0  0  0  0  0
   27.9866   -3.9522   19.0971 C   0  0  0  0  0  0  0  0  0  0  0  0
   27.4430   -3.8517   20.3521 N   0  0  0  0  0  0  0  0  0  0  0  0
   30.2681   -0.6868   21.3642 C   0  0  0  0  0  0  0  0  0  0  0  0
   31.6190   -0.4418   20.9219 N   0  0  0  0  0  0  0  0  0  0  0  0
   33.4080   -0.0490   19.6795 C   0  0  0  0  0  0  0  0  0  0  0  0
   33.7584   -0.1706   21.0083 C   0  0  0  0  0  0  0  0  0  0  0  0
   32.6583   -0.4102   21.7427 N   0  0  0  0  0  0  0  0  0  0  0  0
   28.7348   -1.7771   22.9101 C   0  0  0  0  0  0  0  0  0  0  0  0
   24.6876   -1.6333   19.4346 N   0  0  0  0  0  0  0  0  0  0  0  0
   24.5412   -1.2400   18.1711 N   0  0  0  0  0  0  0  0  0  0  0  0
   25.5392   -1.7932   17.4337 C   0  0  0  0  0  0  0  0  0  0  0  0
   25.7739   -0.1452   15.5213 C   0  0  2  0  0  0  0  0  0  0  0  0
   24.4951   -0.3458   14.7240 C   0  0  2  0  0  0  0  0  0  0  0  0
   27.4180   -3.2990   18.0380 N   0  0  0  0  0  0  0  0  0  0  0  0
   31.8332   -3.9103   18.2553 H   0  0  0  0  0  0  0  0  0  0  0  0
   32.7773   -2.5758   18.6137 H   0  0  0  0  0  0  0  0  0  0  0  0
   25.7630   -3.7125   22.5378 H   0  0  0  0  0  0  0  0  0  0  0  0
   26.1599   -1.7639   23.7116 H   0  0  0  0  0  0  0  0  0  0  0  0
   25.5153   -0.8225   22.3373 H   0  0  0  0  0  0  0  0  0  0  0  0
   27.0236    0.0376   20.5850 H   0  0  0  0  0  0  0  0  0  0  0  0
   29.2914    0.5314   19.8451 H   0  0  0  0  0  0  0  0  0  0  0  0
   31.4245   -0.2077   18.7741 H   0  0  0  0  0  0  0  0  0  0  0  0
   30.8624   -1.9643   23.0141 H   0  0  0  0  0  0  0  0  0  0  0  0
   26.5827   -2.1930   15.5432 H   0  0  0  0  0  0  0  0  0  0  0  0
   23.5555   -2.0407   15.7629 H   0  0  0  0  0  0  0  0  0  0  0  0
   24.5951   -2.4990   14.2907 H   0  0  0  0  0  0  0  0  0  0  0  0
   31.6932   -2.2373   20.4500 H   0  0  0  0  0  0  0  0  0  0  0  0
   30.2222   -1.9255   19.4756 H   0  0  0  0  0  0  0  0  0  0  0  0
   31.2415   -4.6358   20.5367 H   0  0  0  0  0  0  0  0  0  0  0  0
   29.7516   -3.7735   21.0309 H   0  0  0  0  0  0  0  0  0  0  0  0
   34.0610    0.1422   18.8407 H   0  0  0  0  0  0  0  0  0  0  0  0
   34.7552   -0.0894   21.4163 H   0  0  0  0  0  0  0  0  0  0  0  0
   28.5790   -2.4478   23.7482 H   0  0  0  0  0  0  0  0  0  0  0  0
   24.0482   -1.3646   20.2154 H   0  0  0  0  0  0  0  0  0  0  0  0
   26.6437    0.0730   14.8678 H   0  0  0  0  0  0  0  0  0  0  0  0
   25.6462    0.5882   16.3493 H   0  0  0  0  0  0  0  0  0  0  0  0
   23.6444    0.2410   15.1333 H   0  0  0  0  0  0  0  0  0  0  0  0
   24.6472   -0.2255   13.6307 H   0  0  0  0  0  0  0  0  0  0  0  0
  2  3  1  0
  2  4  1  0
  4  5  1  0
  5  6  2  0
  6  7  1  0
  3 10  2  0
 11 12  1  0
 10 13  1  0
  1 14  1  0
 14 15  1  0
 15 16  1  0
 16 17  1  0
 17 18  2  0
  3 18  1  0
  7 19  2  0
  9 19  1  0
 19 20  1  0
  8 20  1  0
  8 21  2  0
 21 22  1  0
 20 23  1  0
 22 23  2  0
  5 24  1  0
  9 24  2  0
 10 25  1  0
 25 26  1  0
 11 27  1  0
 26 27  2  0
 13 27  1  0
 11 28  1  0
 12 29  1  0
 28 29  1  0
 13 30  2  0
 17 30  1  0
  1 31  1  0
  1 32  1  0
  2 33  1  0
  4 34  1  1
  4 35  1  0
  6 36  1  0
  7 37  1  0
  8 38  1  0
  9 39  1  0
 11 40  1  6
 12 41  1  1
 12 42  1  0
 14 43  1  1
 14 44  1  0
 15 45  1  1
 15 46  1  0
 21 47  1  0
 22 48  1  0
 24 49  1  0
 25 50  1  0
 28 51  1  6
 28 52  1  0
 29 53  1  1
 29 54  1  0
M  END
