@<TRIPOS>MOLECULE
1L7F_BCZ_A_801
 51 51 0 0 0
SMALL
GASTEIGER

@<TRIPOS>ATOM
      1 C          -1.6056   -1.3653   -0.5259 C.3     1  UNL1        0.0834
      2 N          -2.5968   -1.8485    0.4499 N.pl3   1  UNL1       -0.2730
      3 C          -3.9739   -2.0742    0.1101 C.cat   1  UNL1        0.3764
      4 N          -4.4032   -1.8245   -1.0872 N.pl3   1  UNL1       -0.1298
      5 N          -4.8742   -2.5733    1.1024 N.pl3   1  UNL1       -0.2893
      6 C          -0.2870   -0.9505    0.1828 C.3     1  UNL1        0.0379
      7 C           0.5692    0.0925   -0.6434 C.3     1  UNL1        0.0342
      8 C           1.6183    0.9590    0.1581 C.3     1  UNL1       -0.0226
      9 C           1.1010    1.5358    1.5090 C.3     1  UNL1       -0.0514
     10 C           1.3986    0.6818    2.7482 C.3     1  UNL1       -0.0650
     11 C           3.0488    0.3551    0.2299 C.3     1  UNL1       -0.0514
     12 C           4.1255    1.4255    0.4255 C.3     1  UNL1       -0.0650
     13 N          -0.3224    1.0336   -1.3391 N.am    1  UNL1       -0.3120
     14 C          -0.3000    1.2447   -2.7589 C.2     1  UNL1        0.2102
     15 C          -1.2557    2.2097   -3.3802 C.3     1  UNL1        0.0122
     16 O           0.4941    0.5976   -3.4937 O.2     1  UNL1       -0.2761
     17 C           0.4015   -2.3200    0.3852 C.3     1  UNL1        0.0759
     18 O           1.7924   -2.2265    0.4923 O.3     1  UNL1       -0.3905
     19 C           0.0091   -3.1787   -0.8308 C.3     1  UNL1        0.0856
     20 C          -0.2736   -4.6041   -0.4366 C.2     1  UNL1        0.3104
     21 O          -1.2598   -4.8809    0.2991 O.2     1  UNL1       -0.2506
     22 O           0.5729   -5.6198   -0.8694 O.3     1  UNL1       -0.4804
     23 C          -1.2073   -2.4988   -1.4687 C.3     1  UNL1       -0.0036
     24 H          -2.0739   -0.5397   -1.0979 H       1  UNL1        0.0696
     25 H          -2.3149   -2.0049    1.4440 H       1  UNL1        0.2581
     26 H          -5.4001   -1.9797   -1.3575 H       1  UNL1        0.3062
     27 H          -4.5354   -2.7783    2.0684 H       1  UNL1        0.2546
     28 H          -5.8804   -2.7407    0.8788 H       1  UNL1        0.2546
     29 H          -0.5586   -0.5063    1.1593 H       1  UNL1        0.0378
     30 H           1.1239   -0.4884   -1.4109 H       1  UNL1        0.0506
     31 H           1.7546    1.8605   -0.4843 H       1  UNL1        0.0319
     32 H           1.5643    2.5332    1.6753 H       1  UNL1        0.0266
     33 H           0.0079    1.7226    1.4478 H       1  UNL1        0.0266
     34 H           2.4642    0.7863    3.0411 H       1  UNL1        0.0230
     35 H           0.7765    1.0345    3.5971 H       1  UNL1        0.0230
     36 H           1.1831   -0.3907    2.5769 H       1  UNL1        0.0230
     37 H           3.1465   -0.3698    1.0597 H       1  UNL1        0.0266
     38 H           3.2814   -0.1802   -0.7158 H       1  UNL1        0.0266
     39 H           4.1165    2.1460   -0.4198 H       1  UNL1        0.0230
     40 H           5.1247    0.9427    0.4630 H       1  UNL1        0.0230
     41 H           3.9671    1.9742    1.3772 H       1  UNL1        0.0230
     42 H          -0.9744    1.6146   -0.7645 H       1  UNL1        0.1490
     43 H          -2.2742    1.7692   -3.3818 H       1  UNL1        0.0322
     44 H          -0.9555    2.4384   -4.4248 H       1  UNL1        0.0322
     45 H          -1.2676    3.1545   -2.7973 H       1  UNL1        0.0322
     46 H          -0.0063   -2.7602    1.3271 H       1  UNL1        0.0606
     47 H           2.1133   -3.1075    0.8191 H       1  UNL1        0.2098
     48 H           0.8396   -3.1753   -1.5731 H       1  UNL1        0.0440
     49 H           0.4025   -6.5834   -0.6081 H       1  UNL1        0.2951
     50 H          -0.9117   -2.0617   -2.4486 H       1  UNL1        0.0307
     51 H          -2.0486   -3.2009   -1.6596 H       1  UNL1        0.0307
@<TRIPOS>BOND
     1     1     2    1
     2     2     3    1
     3     3     4    2
     4     3     5    1
     5     1     6    1
     6     6     7    1
     7     7     8    1
     8     8     9    1
     9     9    10    1
    10     8    11    1
    11    11    12    1
    12     7    13    1
    13    13    14   am
    14    14    15    1
    15    14    16    2
    16     6    17    1
    17    17    18    1
    18    17    19    1
    19    19    20    1
    20    20    21    2
    21    20    22    1
    22     1    23    1
    23    19    23    1
    24     1    24    1
    25     2    25    1
    26     4    26    1
    27     5    27    1
    28     5    28    1
    29     6    29    1
    30     7    30    1
    31     8    31    1
    32     9    32    1
    33     9    33    1
    34    10    34    1
    35    10    35    1
    36    10    36    1
    37    11    37    1
    38    11    38    1
    39    12    39    1
    40    12    40    1
    41    12    41    1
    42    13    42    1
    43    15    43    1
    44    15    44    1
    45    15    45    1
    46    17    46    1
    47    18    47    1
    48    19    48    1
    49    22    49    1
    50    23    50    1
    51    23    51    1
