@<TRIPOS>MOLECULE
1L7F_BCZ_A_801
 51 51 0 0 0
SMALL
GASTEIGER

@<TRIPOS>ATOM
      1 C          24.6460   16.5550   63.1530 C.3     1  UNL1        0.0834
      2 N          24.2740   15.9440   61.8770 N.pl3   1  UNL1       -0.2730
      3 C          23.8880   14.7170   61.8370 C.cat   1  UNL1        0.3764
      4 N          23.6880   13.8980   62.9170 N.pl3   1  UNL1       -0.1298
      5 N          23.5920   14.1650   60.6120 N.pl3   1  UNL1       -0.2893
      6 C          25.7230   17.6470   62.8880 C.3     1  UNL1        0.0379
      7 C          27.1700   17.1260   62.5750 C.3     1  UNL1        0.0342
      8 C          28.1920   18.3180   62.3820 C.3     1  UNL1       -0.0226
      9 C          27.7850   19.2510   61.2010 C.3     1  UNL1       -0.0514
     10 C          28.4340   20.6540   61.1620 C.3     1  UNL1       -0.0650
     11 C          29.6240   17.7090   62.2030 C.3     1  UNL1       -0.0514
     12 C          30.1080   16.8420   63.3870 C.3     1  UNL1       -0.0650
     13 N          27.1560   16.2630   61.3860 N.am    1  UNL1       -0.3120
     14 C          27.2660   14.9130   61.5190 C.2     1  UNL1        0.2102
     15 C          27.1800   14.0660   60.2630 C.3     1  UNL1        0.0122
     16 O          27.4320   14.3150   62.5720 O.2     1  UNL1       -0.2761
     17 C          25.6780   18.5470   64.1730 C.3     1  UNL1        0.0759
     18 O          26.5860   17.9910   65.1660 O.3     1  UNL1       -0.3905
     19 C          24.2180   18.3970   64.7210 C.3     1  UNL1        0.0856
     20 C          23.4850   19.6920   64.8870 C.2     1  UNL1        0.3104
     21 O          22.2660   19.7760   65.0340 O.2     1  UNL1       -0.2506
     22 O          24.2040   20.8120   64.7970 O.3     1  UNL1       -0.4804
     23 C          23.5020   17.4190   63.7550 C.3     1  UNL1       -0.0036
     24 H          24.9344   15.7428   63.7870 H       1  UNL1        0.0696
     25 H          24.3190   16.4723   61.0475 H       1  UNL1        0.2581
     26 H          23.8788   14.2259   63.8255 H       1  UNL1        0.3062
     27 H          23.7115   14.6954   59.7913 H       1  UNL1        0.2546
     28 H          23.2607   13.2396   60.5562 H       1  UNL1        0.2546
     29 H          25.4928   18.1731   61.9852 H       1  UNL1        0.0378
     30 H          27.4984   16.5530   63.4169 H       1  UNL1        0.0506
     31 H          28.1838   18.9463   63.2481 H       1  UNL1        0.0319
     32 H          26.7246   19.3865   61.2468 H       1  UNL1        0.0266
     33 H          28.1376   18.7561   60.3203 H       1  UNL1        0.0266
     34 H          28.1251   21.2138   62.0199 H       1  UNL1        0.0230
     35 H          28.1266   21.1646   60.2733 H       1  UNL1        0.0230
     36 H          29.4993   20.5544   61.1658 H       1  UNL1        0.0230
     37 H          30.3158   18.5152   62.0753 H       1  UNL1        0.0266
     38 H          29.5732   17.0603   61.3536 H       1  UNL1        0.0266
     39 H          30.1764   17.4465   64.2672 H       1  UNL1        0.0230
     40 H          31.0702   16.4329   63.1596 H       1  UNL1        0.0230
     41 H          29.4125   16.0462   63.5541 H       1  UNL1        0.0230
     42 H          27.0668   16.6624   60.4906 H       1  UNL1        0.1490
     43 H          27.0352   14.7008   59.4139 H       1  UNL1        0.0322
     44 H          26.3565   13.3878   60.3458 H       1  UNL1        0.0322
     45 H          28.0876   13.5121   60.1435 H       1  UNL1        0.0322
     46 H          25.9479   19.5618   63.9673 H       1  UNL1        0.0606
     47 H          26.3393   17.0713   65.3507 H       1  UNL1        0.2098
     48 H          24.2407   18.0150   65.7202 H       1  UNL1        0.0440
     49 H          25.1331   20.7646   64.6849 H       1  UNL1        0.2951
     50 H          22.8049   16.8055   64.2866 H       1  UNL1        0.0307
     51 H          22.9405   17.9309   63.0016 H       1  UNL1        0.0307
@<TRIPOS>BOND
     1     1     2    1
     2     2     3    1
     3     3     4    2
     4     3     5    1
     5     1     6    1
     6     6     7    1
     7     7     8    1
     8     8     9    1
     9     9    10    1
    10     8    11    1
    11    11    12    1
    12     7    13    1
    13    13    14   am
    14    14    15    1
    15    14    16    2
    16     6    17    1
    17    17    18    1
    18    17    19    1
    19    19    20    1
    20    20    21    2
    21    20    22    1
    22     1    23    1
    23    19    23    1
    24     1    24    1
    25     2    25    1
    26     4    26    1
    27     5    27    1
    28     5    28    1
    29     6    29    1
    30     7    30    1
    31     8    31    1
    32     9    32    1
    33     9    33    1
    34    10    34    1
    35    10    35    1
    36    10    36    1
    37    11    37    1
    38    11    38    1
    39    12    39    1
    40    12    40    1
    41    12    41    1
    42    13    42    1
    43    15    43    1
    44    15    44    1
    45    15    45    1
    46    17    46    1
    47    18    47    1
    48    19    48    1
    49    22    49    1
    50    23    50    1
    51    23    51    1
