
     RDKit          3D

 27 29  0  0  0  0  0  0  0  0999 V2000
  -16.5116   -4.0485   12.1620 P   0  0  0  0  0  5  0  0  0  0  0  0
  -17.9055   -3.2808   12.2743 O   0  0  0  0  0  0  0  0  0  0  0  0
  -20.1350   -6.1699   11.4081 C   0  0  0  0  0  0  0  0  0  0  0  0
  -21.2489   -9.1191   14.4122 C   0  0  1  0  0  0  0  0  0  0  0  0
  -21.3511  -10.4990   13.7491 C   0  0  1  0  0  0  0  0  0  0  0  0
  -22.3095  -11.2059   14.6882 C   0  0  1  0  0  0  0  0  0  0  0  0
  -21.8914  -10.6672   16.0546 C   0  0  1  0  0  0  0  0  0  0  0  0
  -20.7956  -11.5017   16.7200 C   0  0  0  0  0  0  0  0  0  0  0  0
  -15.9386   -3.6404   13.6104 O   0  0  0  0  0  0  0  0  0  0  0  0
  -15.5252   -3.5718   11.1502 O   0  0  0  0  0  0  0  0  0  0  0  0
  -18.2363  -11.6617   16.7787 P   0  0  2  0  0  5  0  0  0  0  0  0
  -18.5092  -10.9462   18.1784 O   0  0  0  0  0  0  0  0  0  0  0  0
  -18.3408  -13.1908   17.2194 O   0  0  0  0  0  0  0  0  0  0  0  0
  -16.9705  -11.2367   16.1280 O   0  0  0  0  0  0  0  0  0  0  0  0
  -19.5955  -11.4185   15.9735 O   0  0  0  0  0  0  0  0  0  0  0  0
  -21.3753   -9.3324   15.8362 O   0  0  0  0  0  0  0  0  0  0  0  0
  -19.9960   -8.4371   14.1374 N   0  0  0  0  0  0  0  0  0  0  0  0
  -19.7964   -7.5110   13.1466 C   0  0  0  0  0  0  0  0  0  0  0  0
  -20.6861   -7.0917   12.2273 N   0  0  0  0  0  0  0  0  0  0  0  0
  -18.8779   -5.6862   11.4255 N   0  0  0  0  0  0  0  0  0  0  0  0
  -18.0283   -6.1468   12.3790 C   0  0  0  0  0  0  0  0  0  0  0  0
  -16.7674   -5.6121   12.3375 O   0  0  0  0  0  0  0  0  0  0  0  0
  -18.4767   -7.1073   13.2885 C   0  0  0  0  0  0  0  0  0  0  0  0
  -17.8809   -7.7761   14.3274 N   0  0  0  0  0  0  0  0  0  0  0  0
  -18.8199   -8.5514   14.8276 C   0  0  0  0  0  0  0  0  0  0  0  0
  -21.8898  -10.4843   12.4252 O   0  0  0  0  0  0  0  0  0  0  0  0
  -23.6475  -10.7814   14.3818 O   0  0  0  0  0  0  0  0  0  0  0  0
  1  2  1  0
  4  5  1  0
  5  6  1  0
  6  7  1  0
  7  8  1  6
  1  9  1  0
  1 10  2  0
 11 12  1  0
 11 13  1  0
 11 14  2  0
  8 15  1  0
 11 15  1  0
  4 16  1  0
  7 16  1  0
  4 17  1  1
 17 18  4  0
  3 19  4  0
 18 19  4  0
  3 20  4  0
 20 21  4  0
  1 22  1  0
 21 22  1  0
 18 23  4  0
 21 23  4  0
 23 24  4  0
 17 25  4  0
 24 25  4  0
  5 26  1  6
  6 27  1  6
M  END
