1OPK_P16_A_2
     RDKit          3D

 45 48  0  0  0  0  0  0  0  0999 V2000
   49.5967   11.0400   15.2516 O   0  0  0  0  0  0  0  0  0  0  0  0
   49.0079   11.8245   14.2528 C   0  0  0  0  0  0  0  0  0  0  0  0
   48.8693   13.2860   14.6498 C   0  0  0  0  0  0  0  0  0  0  0  0
   49.9908   14.1806   14.5284 C   0  0  0  0  0  0  0  0  0  0  0  0
   49.8663   15.5338   14.9028 C   0  0  0  0  0  0  0  0  0  0  0  0
   48.6273   16.0347   15.4099 C   0  0  0  0  0  0  0  0  0  0  0  0
   47.5031   15.1538   15.5331 C   0  0  0  0  0  0  0  0  0  0  0  0
   46.2351   15.5309   16.0486 N   0  0  0  0  0  0  0  0  0  0  0  0
   45.9426   16.5915   16.8601 C   0  0  0  0  0  0  0  0  0  0  0  0
   44.7007   16.5317   17.4696 N   0  0  0  0  0  0  0  0  0  0  0  0
   44.3803   17.5377   18.3029 C   0  0  0  0  0  0  0  0  0  0  0  0
   45.2534   18.6281   18.5766 C   0  0  0  0  0  0  0  0  0  0  0  0
   44.9288   19.7071   19.4659 C   0  0  0  0  0  0  0  0  0  0  0  0
   45.8129   20.7229   19.6821 C   0  0  0  0  0  0  0  0  0  0  0  0
   47.1401   20.7568   18.9633 C   0  0  0  0  0  0  0  0  0  0  0  0
   47.9987   21.6323   19.0887 O   0  0  0  0  0  0  0  0  0  0  0  0
   47.4308   19.6532   18.0846 N   0  0  0  0  0  4  0  0  0  0  0  0
   46.5167   18.6195   17.8735 C   0  0  0  0  0  0  0  0  0  0  0  0
   46.8413   17.5944   17.0452 N   0  0  0  0  0  0  0  0  0  0  0  0
   48.7172   19.6160   17.3449 C   0  0  0  0  0  0  0  0  0  0  0  0
   45.5230   21.8407   20.6045 C   0  0  0  0  0  0  0  0  0  0  0  0
   45.1651   21.6208   21.9642 C   0  0  0  0  0  0  0  0  0  0  0  0
   45.1176   19.9936   22.6032 Cl  0  0  0  0  0  0  0  0  0  0  0  0
   44.8702   22.7219   22.8353 C   0  0  0  0  0  0  0  0  0  0  0  0
   44.9034   24.0561   22.3354 C   0  0  0  0  0  0  0  0  0  0  0  0
   45.2625   24.3102   20.9787 C   0  0  0  0  0  0  0  0  0  0  0  0
   45.5513   23.1968   20.1287 C   0  0  0  0  0  0  0  0  0  0  0  0
   45.9909   23.5222   18.4765 Cl  0  0  0  0  0  0  0  0  0  0  0  0
   47.6390   13.7762   15.1496 C   0  0  0  0  0  0  0  0  0  0  0  0
   49.6600   10.1216   14.9461 H   0  0  0  0  0  0  0  0  0  0  0  0
   48.0339   11.4344   14.0426 H   0  0  0  0  0  0  0  0  0  0  0  0
   49.6475   11.7848   13.3960 H   0  0  0  0  0  0  0  0  0  0  0  0
   50.8907   13.8292   14.1654 H   0  0  0  0  0  0  0  0  0  0  0  0
   50.6755   16.1675   14.8100 H   0  0  0  0  0  0  0  0  0  0  0  0
   48.5425   17.0255   15.6860 H   0  0  0  0  0  0  0  0  0  0  0  0
   45.4755   14.9601   15.7908 H   0  0  0  0  0  0  0  0  0  0  0  0
   43.4581   17.5180   18.7656 H   0  0  0  0  0  0  0  0  0  0  0  0
   44.0158   19.7143   19.9471 H   0  0  0  0  0  0  0  0  0  0  0  0
   49.3062   20.4689   17.6107 H   0  0  0  0  0  0  0  0  0  0  0  0
   48.5239   19.6299   16.2926 H   0  0  0  0  0  0  0  0  0  0  0  0
   49.2485   18.7225   17.5982 H   0  0  0  0  0  0  0  0  0  0  0  0
   44.6339   22.5478   23.8246 H   0  0  0  0  0  0  0  0  0  0  0  0
   44.6661   24.8433   22.9591 H   0  0  0  0  0  0  0  0  0  0  0  0
   45.3128   25.2759   20.6184 H   0  0  0  0  0  0  0  0  0  0  0  0
   46.8327   13.1383   15.2393 H   0  0  0  0  0  0  0  0  0  0  0  0
  1  2  1  0
  2  3  1  0
  3  4  4  0
  4  5  4  0
  5  6  4  0
  6  7  4  0
  7  8  1  0
  8  9  1  0
  9 10  4  0
 10 11  4  0
 11 12  4  0
 12 13  4  0
 13 14  4  0
 14 15  4  0
 15 16  2  0
 15 17  4  0
 12 18  4  0
 17 18  4  0
  9 19  4  0
 18 19  4  0
 17 20  1  0
 14 21  1  0
 21 22  4  0
 22 23  1  0
 22 24  4  0
 24 25  4  0
 25 26  4  0
 21 27  4  0
 26 27  4  0
 27 28  1  0
  3 29  4  0
  7 29  4  0
  1 30  1  0
  2 31  1  0
  2 32  1  0
  4 33  1  0
  5 34  1  0
  6 35  1  0
  8 36  1  0
 11 37  1  0
 13 38  1  0
 20 39  1  0
 20 40  1  0
 20 41  1  0
 24 42  1  0
 25 43  1  0
 26 44  1  0
 29 45  1  0
M  CHG  1  17   1
M  END
