1PMN_984_A_501
     RDKit          3D

 33 37  0  0  0  0  0  0  0  0999 V2000
   24.0750   12.5798   28.0769 N   0  0  0  0  0  0  0  0  0  0  0  0
   24.3411   13.8769   27.7806 C   0  0  0  0  0  0  0  0  0  0  0  0
   23.3009   14.7294   28.0960 N   0  0  0  0  0  0  0  0  0  0  0  0
   22.1830   13.9708   28.6786 C   0  0  0  0  0  0  0  0  0  0  0  0
   22.6693   12.5603   28.6887 C   0  0  0  0  0  0  0  0  0  0  0  0
   25.0456   11.4900   27.8242 C   0  0  0  0  0  0  0  0  0  0  0  0
   25.5624   10.8408   29.1030 C   0  0  0  0  0  0  0  0  0  0  0  0
   27.0341   10.4415   29.0380 C   0  0  0  0  0  0  0  0  0  0  0  0
   25.3585   14.4782   27.2463 C   0  0  1  0  0  0  0  0  0  0  0  0
   25.0785   15.2111   25.8887 C   0  0  0  0  0  0  0  0  0  0  0  0
   26.3521   15.9080   25.2877 C   0  0  0  0  0  0  0  0  0  0  0  0
   27.0193   16.8131   26.2771 N   0  0  0  0  0  0  0  0  0  0  0  0
   27.3549   16.1204   27.5371 C   0  0  0  0  0  0  0  0  0  0  0  0
   26.1114   15.4443   28.2111 C   0  0  0  0  0  0  0  0  0  0  0  0
   28.2308   17.4338   25.6832 C   0  0  0  0  0  0  0  0  0  0  0  0
   20.9242   14.6133   29.1544 C   0  0  0  0  0  0  0  0  0  0  0  0
   22.1274   11.1656   28.9760 C   0  0  0  0  0  0  0  0  0  0  0  0
   20.3866   14.2967   30.4243 C   0  0  0  0  0  0  0  0  0  0  0  0
   19.2013   14.8653   30.8890 C   0  0  0  0  0  0  0  0  0  0  0  0
   18.4796   15.7702   30.0671 C   0  0  0  0  0  0  0  0  0  0  0  0
   19.0024   16.1210   28.7816 C   0  0  0  0  0  0  0  0  0  0  0  0
   20.2347   15.5249   28.3222 C   0  0  0  0  0  0  0  0  0  0  0  0
   18.6902   14.3777   32.4499 Cl  0  0  0  0  0  0  0  0  0  0  0  0
   16.9873   16.4903   30.5608 Cl  0  0  0  0  0  0  0  0  0  0  0  0
   20.7441   11.0604   29.2836 C   0  0  0  0  0  0  0  0  0  0  0  0
   20.2705    9.7625   29.5843 C   0  0  0  0  0  0  0  0  0  0  0  0
   21.0876    8.6902   29.6033 N   0  0  0  0  0  0  0  0  0  0  0  0
   22.3786    8.9102   29.3186 C   0  0  0  0  0  0  0  0  0  0  0  0
   22.9098   10.0930   29.0112 N   0  0  0  0  0  0  0  0  0  0  0  0
   23.2627    7.8843   29.3340 N   0  0  0  0  0  0  0  0  0  0  0  0
   23.2575    6.8504   28.3203 C   0  0  2  0  0  0  0  0  0  0  0  0
   24.5107    6.2730   28.9709 C   0  0  0  0  0  0  0  0  0  0  0  0
   24.4789    6.7242   27.5450 C   0  0  0  0  0  0  0  0  0  0  0  0
  1  2  1  0
  2  3  2  0
  3  4  1  0
  1  5  1  0
  4  5  2  0
  1  6  1  0
  6  7  1  0
  7  8  1  0
  9  2  1  1
  9 10  1  0
 10 11  1  0
 11 12  1  0
 12 13  1  0
  9 14  1  0
 13 14  1  0
 12 15  1  0
  4 16  1  0
  5 17  1  0
 16 18  2  0
 18 19  1  0
 19 20  2  0
 20 21  1  0
 16 22  1  0
 21 22  2  0
 19 23  1  0
 20 24  1  0
 17 25  2  0
 25 26  1  0
 26 27  2  0
 27 28  1  0
 17 29  1  0
 28 29  2  0
 28 30  1  0
 31 30  1  1
 31 32  1  0
 31 33  1  0
 32 33  1  0
M  END
