1HWI_115_D_3
     RDKit          3D

 30 32  0  0  0  0  0  0  0  0999 V2000
   52.4920   13.9940   21.8120 C   0  0  0  0  0  0  0  0  0  0  0  0
   51.8820   15.2240   21.9500 C   0  0  0  0  0  0  0  0  0  0  0  0
   52.6160   16.4090   21.6950 C   0  0  0  0  0  0  0  0  0  0  0  0
   53.9630   16.3230   21.3030 C   0  0  0  0  0  0  0  0  0  0  0  0
   54.5740   15.0640   21.1670 C   0  0  0  0  0  0  0  0  0  0  0  0
   53.8410   13.8860   21.4220 C   0  0  0  0  0  0  0  0  0  0  0  0
   51.5010   12.9090   22.1370 C   0  0  0  0  0  0  0  0  0  0  0  0
   50.4030   13.6370   22.4320 C   0  0  0  0  0  0  0  0  0  0  0  0
   50.6540   15.0770   22.3130 N   0  0  0  0  0  0  0  0  0  0  0  0
   52.8750    9.3770   22.7810 C   0  0  0  0  0  0  0  0  0  0  0  0
   52.7620   10.7820   22.8060 C   0  0  0  0  0  0  0  0  0  0  0  0
   51.6990   11.3940   22.1300 C   0  0  0  0  0  0  0  0  0  0  0  0
   50.7660   10.6070   21.4440 C   0  0  0  0  0  0  0  0  0  0  0  0
   50.8770    9.2220   21.4170 C   0  0  0  0  0  0  0  0  0  0  0  0
   51.9240    8.6030   22.0820 C   0  0  0  0  0  0  0  0  0  0  0  0
   52.0170    7.2450   22.0510 F   0  0  0  0  0  0  0  0  0  0  0  0
   46.1230    7.8950   19.4760 O   0  0  0  0  0  0  0  0  0  0  0  0
   47.6340    9.3980   18.6750 O   0  0  0  0  0  0  0  0  0  0  0  0
   46.6750    9.7320   22.2520 O   0  0  0  0  0  0  0  0  0  0  0  0
   46.5360    9.0460   19.3890 C   0  0  0  0  0  0  0  0  0  0  0  0
   45.8780   10.2360   20.0580 C   0  0  0  0  0  0  0  0  0  0  0  0
   46.6450   10.7660   21.2790 C   0  0  1  0  0  0  0  0  0  0  0  0
   45.9550   11.9830   21.9010 C   0  0  0  0  0  0  0  0  0  0  0  0
   46.7320   12.5930   23.0830 C   0  0  1  0  0  0  0  0  0  0  0  0
   47.9450   13.3620   22.6060 C   0  0  0  0  0  0  0  0  0  0  0  0
   49.2280   13.0280   22.7970 C   0  0  0  0  0  0  0  0  0  0  0  0
   49.6190   16.1680   22.5770 C   0  0  0  0  0  0  0  0  0  0  0  0
   50.0880   17.1810   23.6280 C   0  0  0  0  0  0  0  0  0  0  0  0
   49.2270   16.8890   21.2720 C   0  0  0  0  0  0  0  0  0  0  0  0
   45.8440   13.4540   23.7640 O   0  0  0  0  0  0  0  0  0  0  0  0
  1  2  1  0
  2  3  2  0
  3  4  1  0
  4  5  2  0
  1  6  2  0
  5  6  1  0
  1  7  1  0
  7  8  2  0
  8  9  1  0
  2  9  1  0
 10 11  2  0
  7 12  1  0
 11 12  1  0
 12 13  2  0
 13 14  1  0
 14 15  2  0
 10 15  1  0
 15 16  1  0
 17 20  2  0
 18 20  1  0
 20 21  1  0
 21 22  1  0
 22 19  1  1
 22 23  1  0
 23 24  1  0
 24 25  1  0
 25 26  2  0
  8 26  1  0
  9 27  1  0
 27 28  1  0
 27 29  1  0
 24 30  1  6
M  END
$$$$
1HWI_115_C_4
     RDKit          3D

 30 32  0  0  0  0  0  0  0  0999 V2000
   15.0440   18.1020   27.7990 C   0  0  0  0  0  0  0  0  0  0  0  0
   15.9520   18.4010   28.7910 C   0  0  0  0  0  0  0  0  0  0  0  0
   15.4950   18.6560   30.1010 C   0  0  0  0  0  0  0  0  0  0  0  0
   14.1140   18.6040   30.3820 C   0  0  0  0  0  0  0  0  0  0  0  0
   13.2030   18.3000   29.3580 C   0  0  0  0  0  0  0  0  0  0  0  0
   13.6670   18.0450   28.0500 C   0  0  0  0  0  0  0  0  0  0  0  0
   15.7740   17.8710   26.5150 C   0  0  0  0  0  0  0  0  0  0  0  0
   17.0550   18.0650   26.8930 C   0  0  0  0  0  0  0  0  0  0  0  0
   17.1600   18.3920   28.3130 N   0  0  0  0  0  0  0  0  0  0  0  0
   13.7430   17.9400   23.2840 C   0  0  0  0  0  0  0  0  0  0  0  0
   14.2400   18.3240   24.5360 C   0  0  0  0  0  0  0  0  0  0  0  0
   15.1860   17.5090   25.1670 C   0  0  0  0  0  0  0  0  0  0  0  0
   15.6240   16.3280   24.5500 C   0  0  0  0  0  0  0  0  0  0  0  0
   15.1300   15.9530   23.3140 C   0  0  0  0  0  0  0  0  0  0  0  0
   14.1960   16.7510   22.6790 C   0  0  0  0  0  0  0  0  0  0  0  0
   13.7220   16.3700   21.4640 F   0  0  0  0  0  0  0  0  0  0  0  0
   18.7480   12.3790   21.7650 O   0  0  0  0  0  0  0  0  0  0  0  0
   17.5700   12.6400   23.6940 O   0  0  0  0  0  0  0  0  0  0  0  0
   19.2930   15.6680   22.5770 O   0  0  0  0  0  0  0  0  0  0  0  0
   18.6670   12.7990   22.9120 C   0  0  0  0  0  0  0  0  0  0  0  0
   19.7850   13.5640   23.6200 C   0  0  0  0  0  0  0  0  0  0  0  0
   19.4630   15.0580   23.8520 C   0  0  1  0  0  0  0  0  0  0  0  0
   20.6020   15.7970   24.5810 C   0  0  0  0  0  0  0  0  0  0  0  0
   20.2530   17.2520   24.9440 C   0  0  1  0  0  0  0  0  0  0  0  0
   19.2230   17.2960   26.0410 C   0  0  0  0  0  0  0  0  0  0  0  0
   18.0650   17.9450   25.9980 C   0  0  0  0  0  0  0  0  0  0  0  0
   18.4780   18.6070   29.0610 C   0  0  0  0  0  0  0  0  0  0  0  0
   18.4960   19.9500   29.8140 C   0  0  0  0  0  0  0  0  0  0  0  0
   18.7750   17.4440   30.0390 C   0  0  0  0  0  0  0  0  0  0  0  0
   21.4500   17.8740   25.3480 O   0  0  0  0  0  0  0  0  0  0  0  0
  1  2  1  0
  2  3  2  0
  3  4  1  0
  4  5  2  0
  1  6  2  0
  5  6  1  0
  1  7  1  0
  7  8  2  0
  8  9  1  0
  2  9  1  0
 10 11  2  0
  7 12  1  0
 11 12  1  0
 12 13  2  0
 13 14  1  0
 14 15  2  0
 10 15  1  0
 15 16  1  0
 17 20  2  0
 18 20  1  0
 20 21  1  0
 21 22  1  0
 22 19  1  6
 22 23  1  0
 23 24  1  0
 24 25  1  0
 25 26  2  0
  8 26  1  0
  9 27  1  0
 27 28  1  0
 27 29  1  0
 24 30  1  1
M  END
$$$$
1HWI_115_A_2
     RDKit          3D

 30 32  0  0  0  0  0  0  0  0999 V2000
   18.4010  -24.9180   16.5060 C   0  0  0  0  0  0  0  0  0  0  0  0
   17.9490  -25.1160   15.2150 C   0  0  0  0  0  0  0  0  0  0  0  0
   16.7230  -25.7930   15.0000 C   0  0  0  0  0  0  0  0  0  0  0  0
   15.9800  -26.2550   16.1050 C   0  0  0  0  0  0  0  0  0  0  0  0
   16.4590  -26.0420   17.4160 C   0  0  0  0  0  0  0  0  0  0  0  0
   17.6720  -25.3710   17.6270 C   0  0  0  0  0  0  0  0  0  0  0  0
   19.7110  -24.1830   16.4580 C   0  0  0  0  0  0  0  0  0  0  0  0
   19.8850  -24.0340   15.1280 C   0  0  0  0  0  0  0  0  0  0  0  0
   18.7880  -24.6130   14.3630 N   0  0  0  0  0  0  0  0  0  0  0  0
   21.8730  -24.2130   19.6180 C   0  0  0  0  0  0  0  0  0  0  0  0
   21.0480  -24.6580   18.5760 C   0  0  0  0  0  0  0  0  0  0  0  0
   20.5850  -23.7380   17.6190 C   0  0  0  0  0  0  0  0  0  0  0  0
   20.9500  -22.3800   17.7090 C   0  0  0  0  0  0  0  0  0  0  0  0
   21.7680  -21.9450   18.7450 C   0  0  0  0  0  0  0  0  0  0  0  0
   22.2310  -22.8600   19.6980 C   0  0  0  0  0  0  0  0  0  0  0  0
   23.0340  -22.4250   20.7080 F   0  0  0  0  0  0  0  0  0  0  0  0
   23.3240  -17.1500   16.8110 O   0  0  0  0  0  0  0  0  0  0  0  0
   21.2130  -17.9530   17.0500 O   0  0  0  0  0  0  0  0  0  0  0  0
   23.6280  -20.2010   15.3420 O   0  0  0  0  0  0  0  0  0  0  0  0
   22.3490  -17.7280   16.3490 C   0  0  0  0  0  0  0  0  0  0  0  0
   22.2800  -18.2610   14.9270 C   0  0  0  0  0  0  0  0  0  0  0  0
   22.3680  -19.7910   14.8180 C   0  0  1  0  0  0  0  0  0  0  0  0
   22.2860  -20.2600   13.3610 C   0  0  0  0  0  0  0  0  0  0  0  0
   22.3530  -21.7860   13.2180 C   0  0  1  0  0  0  0  0  0  0  0  0
   21.0790  -22.4250   13.7070 C   0  0  0  0  0  0  0  0  0  0  0  0
   20.9810  -23.3940   14.6150 C   0  0  0  0  0  0  0  0  0  0  0  0
   18.6060  -24.3980   12.8520 C   0  0  0  0  0  0  0  0  0  0  0  0
   18.5490  -25.7280   12.0780 C   0  0  0  0  0  0  0  0  0  0  0  0
   17.3550  -23.5350   12.5500 C   0  0  0  0  0  0  0  0  0  0  0  0
   22.5660  -22.0540   11.8620 O   0  0  0  0  0  0  0  0  0  0  0  0
  1  2  1  0
  2  3  2  0
  3  4  1  0
  4  5  2  0
  1  6  2  0
  5  6  1  0
  1  7  1  0
  7  8  2  0
  8  9  1  0
  2  9  1  0
 10 11  2  0
  7 12  1  0
 11 12  1  0
 12 13  2  0
 13 14  1  0
 14 15  2  0
 10 15  1  0
 15 16  1  0
 17 20  2  0
 18 20  1  0
 20 21  1  0
 21 22  1  0
 22 19  1  6
 22 23  1  0
 23 24  1  0
 24 25  1  0
 25 26  2  0
  8 26  1  0
  9 27  1  0
 27 28  1  0
 27 29  1  0
 24 30  1  6
M  END
$$$$
1HWI_115_B_1
     RDKit          3D

 30 32  0  0  0  0  0  0  0  0999 V2000
   34.5900   -7.3020  -13.1620 C   0  0  0  0  0  0  0  0  0  0  0  0
   34.7220   -8.6540  -12.9220 C   0  0  0  0  0  0  0  0  0  0  0  0
   35.6320   -9.4120  -13.6910 C   0  0  0  0  0  0  0  0  0  0  0  0
   36.3980   -8.7790  -14.6960 C   0  0  0  0  0  0  0  0  0  0  0  0
   36.2530   -7.4010  -14.9230 C   0  0  0  0  0  0  0  0  0  0  0  0
   35.3460   -6.6540  -14.1560 C   0  0  0  0  0  0  0  0  0  0  0  0
   33.5600   -6.7290  -12.2210 C   0  0  0  0  0  0  0  0  0  0  0  0
   33.2020   -7.8280  -11.5240 C   0  0  0  0  0  0  0  0  0  0  0  0
   33.9300   -9.0170  -11.9660 N   0  0  0  0  0  0  0  0  0  0  0  0
   32.0550   -3.3330  -13.1100 C   0  0  0  0  0  0  0  0  0  0  0  0
   32.5040   -4.6520  -13.2230 C   0  0  0  0  0  0  0  0  0  0  0  0
   33.0830   -5.2880  -12.1180 C   0  0  0  0  0  0  0  0  0  0  0  0
   33.2080   -4.5980  -10.9020 C   0  0  0  0  0  0  0  0  0  0  0  0
   32.7590   -3.2800  -10.7910 C   0  0  0  0  0  0  0  0  0  0  0  0
   32.1810   -2.6500  -11.8980 C   0  0  0  0  0  0  0  0  0  0  0  0
   31.7350   -1.3640  -11.7930 F   0  0  0  0  0  0  0  0  0  0  0  0
   32.4980   -3.2890   -4.9480 O   0  0  0  0  0  0  0  0  0  0  0  0
   34.0220   -3.8720   -6.5480 O   0  0  0  0  0  0  0  0  0  0  0  0
   30.8900   -5.3120   -7.3940 O   0  0  0  0  0  0  0  0  0  0  0  0
   33.0070   -4.1330   -5.6760 C   0  0  0  0  0  0  0  0  0  0  0  0
   32.5760   -5.5940   -5.6880 C   0  0  0  0  0  0  0  0  0  0  0  0
   32.0460   -6.0870   -7.0450 C   0  0  1  0  0  0  0  0  0  0  0  0
   31.6420   -7.5660   -6.9700 C   0  0  0  0  0  0  0  0  0  0  0  0
   31.1070   -8.1150   -8.2960 C   0  0  1  0  0  0  0  0  0  0  0  0
   32.2290   -8.2910   -9.2940 C   0  0  0  0  0  0  0  0  0  0  0  0
   32.2660   -7.7600  -10.5290 C   0  0  0  0  0  0  0  0  0  0  0  0
   33.6970  -10.4120  -11.4090 C   0  0  0  0  0  0  0  0  0  0  0  0
   33.4460  -11.4490  -12.5080 C   0  0  0  0  0  0  0  0  0  0  0  0
   34.8620  -10.8430  -10.4960 C   0  0  0  0  0  0  0  0  0  0  0  0
   30.4700   -9.3470   -8.0030 O   0  0  0  0  0  0  0  0  0  0  0  0
  1  2  1  0
  2  3  2  0
  3  4  1  0
  4  5  2  0
  1  6  2  0
  5  6  1  0
  1  7  1  0
  7  8  2  0
  8  9  1  0
  2  9  1  0
 10 11  2  0
  7 12  1  0
 11 12  1  0
 12 13  2  0
 13 14  1  0
 14 15  2  0
 10 15  1  0
 15 16  1  0
 17 20  2  0
 18 20  1  0
 20 21  1  0
 21 22  1  0
 22 19  1  1
 22 23  1  0
 23 24  1  0
 24 25  1  0
 25 26  2  0
  8 26  1  0
  9 27  1  0
 27 28  1  0
 27 29  1  0
 24 30  1  1
M  END
$$$$
