1HWI_115_B_1
     RDKit          3D

 30 32  0  0  0  0  0  0  0  0999 V2000
   34.5900   -7.3020  -13.1620 C   0  0  0  0  0  0  0  0  0  0  0  0
   34.7220   -8.6540  -12.9220 C   0  0  0  0  0  0  0  0  0  0  0  0
   35.6320   -9.4120  -13.6910 C   0  0  0  0  0  0  0  0  0  0  0  0
   36.3980   -8.7790  -14.6960 C   0  0  0  0  0  0  0  0  0  0  0  0
   36.2530   -7.4010  -14.9230 C   0  0  0  0  0  0  0  0  0  0  0  0
   35.3460   -6.6540  -14.1560 C   0  0  0  0  0  0  0  0  0  0  0  0
   33.5600   -6.7290  -12.2210 C   0  0  0  0  0  0  0  0  0  0  0  0
   33.2020   -7.8280  -11.5240 C   0  0  0  0  0  0  0  0  0  0  0  0
   33.9300   -9.0170  -11.9660 N   0  0  0  0  0  0  0  0  0  0  0  0
   32.0550   -3.3330  -13.1100 C   0  0  0  0  0  0  0  0  0  0  0  0
   32.5040   -4.6520  -13.2230 C   0  0  0  0  0  0  0  0  0  0  0  0
   33.0830   -5.2880  -12.1180 C   0  0  0  0  0  0  0  0  0  0  0  0
   33.2080   -4.5980  -10.9020 C   0  0  0  0  0  0  0  0  0  0  0  0
   32.7590   -3.2800  -10.7910 C   0  0  0  0  0  0  0  0  0  0  0  0
   32.1810   -2.6500  -11.8980 C   0  0  0  0  0  0  0  0  0  0  0  0
   31.7350   -1.3640  -11.7930 F   0  0  0  0  0  0  0  0  0  0  0  0
   32.4980   -3.2890   -4.9480 O   0  0  0  0  0  0  0  0  0  0  0  0
   34.0220   -3.8720   -6.5480 O   0  0  0  0  0  0  0  0  0  0  0  0
   30.8900   -5.3120   -7.3940 O   0  0  0  0  0  0  0  0  0  0  0  0
   33.0070   -4.1330   -5.6760 C   0  0  0  0  0  0  0  0  0  0  0  0
   32.5760   -5.5940   -5.6880 C   0  0  0  0  0  0  0  0  0  0  0  0
   32.0460   -6.0870   -7.0450 C   0  0  1  0  0  0  0  0  0  0  0  0
   31.6420   -7.5660   -6.9700 C   0  0  0  0  0  0  0  0  0  0  0  0
   31.1070   -8.1150   -8.2960 C   0  0  1  0  0  0  0  0  0  0  0  0
   32.2290   -8.2910   -9.2940 C   0  0  0  0  0  0  0  0  0  0  0  0
   32.2660   -7.7600  -10.5290 C   0  0  0  0  0  0  0  0  0  0  0  0
   33.6970  -10.4120  -11.4090 C   0  0  0  0  0  0  0  0  0  0  0  0
   33.4460  -11.4490  -12.5080 C   0  0  0  0  0  0  0  0  0  0  0  0
   34.8620  -10.8430  -10.4960 C   0  0  0  0  0  0  0  0  0  0  0  0
   30.4700   -9.3470   -8.0030 O   0  0  0  0  0  0  0  0  0  0  0  0
  1  2  1  0
  2  3  2  0
  3  4  1  0
  4  5  2  0
  1  6  2  0
  5  6  1  0
  1  7  1  0
  7  8  2  0
  8  9  1  0
  2  9  1  0
 10 11  2  0
  7 12  1  0
 11 12  1  0
 12 13  2  0
 13 14  1  0
 14 15  2  0
 10 15  1  0
 15 16  1  0
 17 20  2  0
 18 20  1  0
 20 21  1  0
 21 22  1  0
 22 19  1  1
 22 23  1  0
 23 24  1  0
 24 25  1  0
 25 26  2  0
  8 26  1  0
  9 27  1  0
 27 28  1  0
 27 29  1  0
 24 30  1  1
M  END
$$$$
