1N1M_A3M_A_954
     RDKit          3D

 12 12  0  0  0  0  0  0  0  0999 V2000
   65.8732   79.1421  106.3789 C   0  0  0  0  0  0  0  0  0  0  0  0
   66.7446   78.9283  107.5661 C   0  0  0  0  0  0  0  0  0  0  0  0
   68.0955   79.0137  107.0658 N   0  0  0  0  0  0  0  0  0  0  0  0
   68.0934   79.4276  105.6604 C   0  0  0  0  0  0  0  0  0  0  0  0
   66.6859   79.9854  105.4511 C   0  0  0  0  0  0  0  0  0  0  0  0
   69.3272   78.7572  107.7720 C   0  0  0  0  0  0  0  0  0  0  0  0
   69.3969   78.0463  109.0505 C   0  0  2  0  0  0  0  0  0  0  0  0
   69.0010   78.8900  110.2332 C   0  0  1  0  0  0  0  0  0  0  0  0
   68.8538   77.9651  111.4243 C   0  0  0  0  0  0  0  0  0  0  0  0
   70.4456   79.1579  107.2869 O   0  0  0  0  0  0  0  0  0  0  0  0
   70.6474   77.3798  109.2021 N   0  0  0  0  0  0  0  0  0  0  0  0
   70.0330   79.9171  110.5971 C   0  0  0  0  0  0  0  0  0  0  0  0
  1  2  1  0
  2  3  1  0
  3  4  1  0
  1  5  1  0
  4  5  1  0
  3  6  1  0
  6  7  1  0
  7  8  1  0
  8  9  1  1
  6 10  2  0
  7 11  1  1
  8 12  1  0
M  END
$$$$
