1N1M_A3M_A_954
     RDKit          3D

 12 12  0  0  0  0  0  0  0  0999 V2000
  129.5301   83.2219  100.8108 C   0  0  0  0  0  0  0  0  0  0  0  0
  128.6328   82.0768  101.1239 C   0  0  0  0  0  0  0  0  0  0  0  0
  129.4304   81.1762  101.9209 N   0  0  0  0  0  0  0  0  0  0  0  0
  130.7213   81.7891  102.2444 C   0  0  0  0  0  0  0  0  0  0  0  0
  130.5014   83.2717  101.9449 C   0  0  0  0  0  0  0  0  0  0  0  0
  129.0886   79.8539  102.3859 C   0  0  0  0  0  0  0  0  0  0  0  0
  127.9695   79.0714  101.8566 C   0  0  2  0  0  0  0  0  0  0  0  0
  126.6259   79.5131  102.3729 C   0  0  1  0  0  0  0  0  0  0  0  0
  125.5669   78.8202  101.5396 C   0  0  0  0  0  0  0  0  0  0  0  0
  129.7782   79.2970  103.3138 O   0  0  0  0  0  0  0  0  0  0  0  0
  128.2125   77.6730  101.9844 N   0  0  0  0  0  0  0  0  0  0  0  0
  126.3863   79.1244  103.8026 C   0  0  0  0  0  0  0  0  0  0  0  0
  1  2  1  0
  2  3  1  0
  3  4  1  0
  1  5  1  0
  4  5  1  0
  3  6  1  0
  6  7  1  0
  7  8  1  0
  8  9  1  6
  6 10  2  0
  7 11  1  1
  8 12  1  0
M  END
$$$$
