1N1M_A3M_A_954
     RDKit          3D

 12 12  0  0  0  0  0  0  0  0999 V2000
   74.3504   68.7331  119.0459 C   0  0  0  0  0  0  0  0  0  0  0  0
   73.0881   69.0202  118.3118 C   0  0  0  0  0  0  0  0  0  0  0  0
   73.4220   68.8838  116.9146 N   0  0  0  0  0  0  0  0  0  0  0  0
   74.7863   68.3713  116.7641 C   0  0  0  0  0  0  0  0  0  0  0  0
   75.1176   67.8166  118.1493 C   0  0  0  0  0  0  0  0  0  0  0  0
   72.5978   69.1753  115.7668 C   0  0  0  0  0  0  0  0  0  0  0  0
   71.3092   69.8666  115.8474 C   0  0  2  0  0  0  0  0  0  0  0  0
   70.1249   68.9658  115.6169 C   0  0  1  0  0  0  0  0  0  0  0  0
   70.3878   67.6689  116.3548 C   0  0  0  0  0  0  0  0  0  0  0  0
   72.9787   68.8258  114.5923 O   0  0  0  0  0  0  0  0  0  0  0  0
   71.3074   71.0479  115.0501 N   0  0  0  0  0  0  0  0  0  0  0  0
   68.8421   69.5281  116.1562 C   0  0  0  0  0  0  0  0  0  0  0  0
  1  2  1  0
  2  3  1  0
  3  4  1  0
  1  5  1  0
  4  5  1  0
  3  6  1  0
  6  7  1  0
  7  8  1  0
  8  9  1  1
  6 10  2  0
  7 11  1  6
  8 12  1  0
M  END
$$$$
