1N1M_A3M_A_954
     RDKit          3D

 12 12  0  0  0  0  0  0  0  0999 V2000
  131.0980   59.2158   95.8754 C   0  0  0  0  0  0  0  0  0  0  0  0
  129.8712   59.8261   96.4560 C   0  0  0  0  0  0  0  0  0  0  0  0
  129.8110   61.1575   95.9026 N   0  0  0  0  0  0  0  0  0  0  0  0
  130.8535   61.3357   94.8887 C   0  0  0  0  0  0  0  0  0  0  0  0
  131.2889   59.9069   94.5645 C   0  0  0  0  0  0  0  0  0  0  0  0
  128.8914   62.2200   96.2300 C   0  0  0  0  0  0  0  0  0  0  0  0
  127.9839   62.1827   97.3788 C   0  0  2  0  0  0  0  0  0  0  0  0
  126.6933   61.4568   97.1058 C   0  0  1  0  0  0  0  0  0  0  0  0
  125.9441   61.3492   98.4184 C   0  0  0  0  0  0  0  0  0  0  0  0
  128.8343   63.2732   95.4991 O   0  0  0  0  0  0  0  0  0  0  0  0
  127.8151   63.4798   97.9445 N   0  0  0  0  0  0  0  0  0  0  0  0
  125.7986   62.1848   96.1456 C   0  0  0  0  0  0  0  0  0  0  0  0
  1  2  1  0
  2  3  1  0
  3  4  1  0
  1  5  1  0
  4  5  1  0
  3  6  1  0
  6  7  1  0
  7  8  1  0
  8  9  1  1
  6 10  2  0
  7 11  1  6
  8 12  1  0
M  END
$$$$
