1N1M_A3M_A_954
     RDKit          3D

 12 12  0  0  0  0  0  0  0  0999 V2000
  130.5047   74.6259  115.1761 C   0  0  0  0  0  0  0  0  0  0  0  0
  131.4046   75.2626  114.1764 C   0  0  0  0  0  0  0  0  0  0  0  0
  130.9030   74.8407  112.8909 N   0  0  0  0  0  0  0  0  0  0  0  0
  129.6449   74.1069  113.0504 C   0  0  0  0  0  0  0  0  0  0  0  0
  129.1990   74.4604  114.4690 C   0  0  0  0  0  0  0  0  0  0  0  0
  131.4803   75.0684  111.5883 C   0  0  0  0  0  0  0  0  0  0  0  0
  132.8937   75.3842  111.3710 C   0  0  2  0  0  0  0  0  0  0  0  0
  133.1994   76.8574  111.4285 C   0  0  1  0  0  0  0  0  0  0  0  0
  134.7006   77.0065  111.5698 C   0  0  0  0  0  0  0  0  0  0  0  0
  130.7486   75.0001  110.5364 O   0  0  0  0  0  0  0  0  0  0  0  0
  133.3952   74.7295  110.2087 N   0  0  0  0  0  0  0  0  0  0  0  0
  132.7984   77.5924  110.1829 C   0  0  0  0  0  0  0  0  0  0  0  0
  1  2  1  0
  2  3  1  0
  3  4  1  0
  1  5  1  0
  4  5  1  0
  3  6  1  0
  6  7  1  0
  7  8  1  0
  8  9  1  6
  6 10  2  0
  7 11  1  6
  8 12  1  0
M  END
$$$$
