1N1M_A3M_A_954
     RDKit          3D

 12 12  0  0  0  0  0  0  0  0999 V2000
  135.6295   65.8802   99.0840 C   0  0  0  0  0  0  0  0  0  0  0  0
  134.6329   64.8519   99.4891 C   0  0  0  0  0  0  0  0  0  0  0  0
  134.7670   64.7367  100.9213 N   0  0  0  0  0  0  0  0  0  0  0  0
  135.6849   65.7585  101.4312 C   0  0  0  0  0  0  0  0  0  0  0  0
  135.7833   66.7606  100.2813 C   0  0  0  0  0  0  0  0  0  0  0  0
  134.1260   63.7936  101.8053 C   0  0  0  0  0  0  0  0  0  0  0  0
  133.9079   64.0381  103.2327 C   0  0  2  0  0  0  0  0  0  0  0  0
  135.0969   63.6997  104.0922 C   0  0  1  0  0  0  0  0  0  0  0  0
  134.8431   64.2775  105.4697 C   0  0  0  0  0  0  0  0  0  0  0  0
  133.7098   62.6663  101.3554 O   0  0  0  0  0  0  0  0  0  0  0  0
  132.6844   63.4557  103.6742 N   0  0  0  0  0  0  0  0  0  0  0  0
  135.2996   62.2225  104.2639 C   0  0  0  0  0  0  0  0  0  0  0  0
  1  2  1  0
  2  3  1  0
  3  4  1  0
  1  5  1  0
  4  5  1  0
  3  6  1  0
  6  7  1  0
  7  8  1  0
  8  9  1  1
  6 10  2  0
  7 11  1  1
  8 12  1  0
M  END
$$$$
