1N1M_A3M_A_954
     RDKit          3D

 12 12  0  0  0  0  0  0  0  0999 V2000
  137.8088   66.0230  106.7853 C   0  0  0  0  0  0  0  0  0  0  0  0
  137.0154   64.9122  106.1927 C   0  0  0  0  0  0  0  0  0  0  0  0
  136.5884   65.3969  104.9023 N   0  0  0  0  0  0  0  0  0  0  0  0
  137.2152   66.6885  104.6099 C   0  0  0  0  0  0  0  0  0  0  0  0
  138.3643   66.7669  105.6147 C   0  0  0  0  0  0  0  0  0  0  0  0
  135.6885   64.7690  103.9655 C   0  0  0  0  0  0  0  0  0  0  0  0
  134.8501   63.6143  104.2948 C   0  0  2  0  0  0  0  0  0  0  0  0
  135.3248   62.3266  103.6755 C   0  0  1  0  0  0  0  0  0  0  0  0
  136.8098   62.2078  103.9521 C   0  0  0  0  0  0  0  0  0  0  0  0
  135.5880   65.2164  102.7670 O   0  0  0  0  0  0  0  0  0  0  0  0
  133.4717   63.8970  104.0683 N   0  0  0  0  0  0  0  0  0  0  0  0
  134.6680   61.1118  104.2631 C   0  0  0  0  0  0  0  0  0  0  0  0
  1  2  1  0
  2  3  1  0
  3  4  1  0
  1  5  1  0
  4  5  1  0
  3  6  1  0
  6  7  1  0
  7  8  1  0
  8  9  1  1
  6 10  2  0
  7 11  1  6
  8 12  1  0
M  END
$$$$
