7A9H_TPP_AAA_702
     RDKit          3D

 26 27  0  0  0  0  0  0  0  0999 V2000
   -9.6820  -17.7085  -39.3964 N   0  0  0  0  0  0  0  0  0  0  0  0
  -10.8064  -17.1108  -39.0352 C   0  0  0  0  0  0  0  0  0  0  0  0
  -10.9450  -16.4990  -37.6764 C   0  0  0  0  0  0  0  0  0  0  0  0
  -11.8642  -17.0236  -39.8771 N   0  0  0  0  0  0  0  0  0  0  0  0
  -11.7998  -17.5595  -41.1415 C   0  0  0  0  0  0  0  0  0  0  0  0
  -12.9674  -17.4980  -41.9035 N   0  0  0  0  0  0  0  0  0  0  0  0
  -10.6171  -18.1972  -41.5563 C   0  0  0  0  0  0  0  0  0  0  0  0
   -9.5564  -18.2539  -40.6340 C   0  0  0  0  0  0  0  0  0  0  0  0
  -10.4793  -18.6554  -42.9291 C   0  0  0  0  0  0  0  0  0  0  0  0
  -11.8159  -18.9463  -43.5754 N   0  0  0  0  0  0  0  0  0  0  0  0
  -12.2586  -17.9283  -44.3664 C   0  0  0  0  0  0  0  0  0  0  0  0
  -13.8747  -18.5197  -45.0602 S   0  0  0  0  0  0  0  0  0  0  0  0
  -13.7208  -20.1183  -44.1534 C   0  0  0  0  0  0  0  0  0  0  0  0
  -12.5273  -20.0159  -43.4713 C   0  0  0  0  0  0  0  0  0  0  0  0
  -12.0961  -21.2023  -42.5961 C   0  0  0  0  0  0  0  0  0  0  0  0
  -14.7437  -21.1704  -44.1953 C   0  0  0  0  0  0  0  0  0  0  0  0
  -16.1174  -20.5231  -43.9249 C   0  0  0  0  0  0  0  0  0  0  0  0
  -17.0757  -21.4809  -43.7825 O   0  0  0  0  0  0  0  0  0  0  0  0
  -17.8958  -21.9441  -45.1616 P   0  0  2  0  0  0  0  0  0  0  0  0
  -19.3604  -22.1911  -44.7667 O   0  0  0  0  0  0  0  0  0  0  0  0
  -17.3534  -23.4476  -45.7723 O   0  0  0  0  0  0  0  0  0  0  0  0
  -17.9130  -20.8331  -46.4001 O   0  0  0  0  0  0  0  0  0  0  0  0
  -18.6898  -21.3879  -47.7970 P   0  0  1  0  0  0  0  0  0  0  0  0
  -19.6566  -22.4866  -47.5469 O   0  0  0  0  0  0  0  0  0  0  0  0
  -19.4748  -20.0505  -48.5051 O   0  0  0  0  0  0  0  0  0  0  0  0
  -17.4751  -21.8688  -48.9002 O   0  0  0  0  0  0  0  0  0  0  0  0
  1  2  2  0
  2  3  1  0
  2  4  1  0
  4  5  2  0
  5  6  1  0
  5  7  1  0
  1  8  1  0
  7  8  2  0
  7  9  1  0
  9 10  1  0
 10 11  2  0
 11 12  1  0
 12 13  1  0
 10 14  1  0
 13 14  2  0
 14 15  1  0
 13 16  1  0
 16 17  1  0
 17 18  1  0
 18 19  1  0
 19 20  2  0
 19 21  1  6
 19 22  1  0
 22 23  1  0
 23 24  2  0
 23 25  1  6
 23 26  1  0
M  CHG  1  10   1
M  END
$$$$
