7RC3_SAH_A_405
     RDKit          3D

 46 48  0  0  0  0  0  0  0  0999 V2000
  -49.4605   14.2317    3.8582 N   0  0  0  0  0  0  0  0  0  0  0  0
  -48.2838   15.0406    4.1827 C   0  0  2  0  0  0  0  0  0  0  0  0
  -47.1846   14.2150    4.8687 C   0  0  0  0  0  0  0  0  0  0  0  0
  -45.7670   14.4112    4.3266 C   0  0  0  0  0  0  0  0  0  0  0  0
  -44.6337   13.1405    4.9633 S   0  0  0  0  0  0  0  0  0  0  0  0
  -48.6900   16.2162    5.0547 C   0  0  0  0  0  0  0  0  0  0  0  0
  -49.5279   17.0270    4.6378 O   0  0  0  0  0  0  0  0  0  0  0  0
  -48.2068   16.3600    6.1927 O   0  0  0  0  0  0  0  0  0  0  0  0
  -45.2233   13.0340    6.6849 C   0  0  0  0  0  0  0  0  0  0  0  0
  -44.8918   14.2379    7.5663 C   0  0  2  0  0  0  0  0  0  0  0  0
  -45.9026   15.2193    7.4101 O   0  0  0  0  0  0  0  0  0  0  0  0
  -43.6038   14.9764    7.2096 C   0  0  2  0  0  0  0  0  0  0  0  0
  -42.7500   14.9853    8.3435 O   0  0  0  0  0  0  0  0  0  0  0  0
  -44.0525   16.3975    6.8556 C   0  0  2  0  0  0  0  0  0  0  0  0
  -43.1918   17.4425    7.2375 O   0  0  0  0  0  0  0  0  0  0  0  0
  -45.3500   16.5225    7.6118 C   0  0  1  0  0  0  0  0  0  0  0  0
  -46.3811   17.3871    7.0510 N   0  0  0  0  0  4  0  0  0  0  0  0
  -46.4548   18.7556    7.1290 C   0  0  0  0  0  0  0  0  0  0  0  0
  -47.5064   19.1679    6.3806 N   0  0  0  0  0  0  0  0  0  0  0  0
  -48.0884   18.0852    5.8081 C   0  0  0  0  0  0  0  0  0  0  0  0
  -49.1671   17.9369    4.9427 C   0  0  0  0  0  0  0  0  0  0  0  0
  -49.8606   18.9889    4.5200 N   0  0  0  0  0  0  0  0  0  0  0  0
  -49.5072   16.6723    4.5396 N   0  0  0  0  0  0  0  0  0  0  0  0
  -48.8071   15.5640    4.9686 C   0  0  0  0  0  0  0  0  0  0  0  0
  -47.7265   15.7166    5.8204 N   0  0  0  0  0  0  0  0  0  0  0  0
  -47.3829   16.9586    6.2200 C   0  0  0  0  0  0  0  0  0  0  0  0
  -49.1811   13.4445    3.2729 H   0  0  0  0  0  0  0  0  0  0  0  0
  -49.8812   13.8826    4.7194 H   0  0  0  0  0  0  0  0  0  0  0  0
  -47.8747   15.4042    3.2633 H   0  0  0  0  0  0  0  0  0  0  0  0
  -47.1780   14.4752    5.9065 H   0  0  0  0  0  0  0  0  0  0  0  0
  -47.4292   13.1909    4.6780 H   0  0  0  0  0  0  0  0  0  0  0  0
  -45.7913   14.3529    3.2585 H   0  0  0  0  0  0  0  0  0  0  0  0
  -45.4134   15.3694    4.6458 H   0  0  0  0  0  0  0  0  0  0  0  0
  -47.5724   15.7493    6.5129 H   0  0  0  0  0  0  0  0  0  0  0  0
  -46.2874   12.9237    6.6633 H   0  0  0  0  0  0  0  0  0  0  0  0
  -44.7136   12.2001    7.1204 H   0  0  0  0  0  0  0  0  0  0  0  0
  -44.7994   13.8234    8.5484 H   0  0  0  0  0  0  0  0  0  0  0  0
  -43.0656   14.5233    6.4034 H   0  0  0  0  0  0  0  0  0  0  0  0
  -43.2123   15.3917    9.0932 H   0  0  0  0  0  0  0  0  0  0  0  0
  -44.0988   16.5054    5.7920 H   0  0  0  0  0  0  0  0  0  0  0  0
  -43.0805   17.4338    8.2010 H   0  0  0  0  0  0  0  0  0  0  0  0
  -45.1290   16.9033    8.5871 H   0  0  0  0  0  0  0  0  0  0  0  0
  -45.8184   19.3658    7.6655 H   0  0  0  0  0  0  0  0  0  0  0  0
  -49.6098   19.8944    4.8142 H   0  0  0  0  0  0  0  0  0  0  0  0
  -50.6250   18.8628    3.9126 H   0  0  0  0  0  0  0  0  0  0  0  0
  -49.0885   14.6220    4.6548 H   0  0  0  0  0  0  0  0  0  0  0  0
  2  1  1  0
  2  3  1  0
  3  4  1  0
  4  5  1  0
  2  6  1  0
  6  7  2  0
  6  8  1  0
  5  9  1  0
 10  9  1  0
 10 11  1  0
 10 12  1  0
 12 13  1  0
 12 14  1  0
 14 15  1  0
 11 16  1  0
 14 16  1  0
 16 17  1  0
 17 18  4  0
 18 19  4  0
 19 20  4  0
 20 21  4  0
 21 22  1  0
 21 23  4  0
 23 24  4  0
 24 25  4  0
 17 26  4  0
 20 26  4  0
 25 26  4  0
  1 27  1  0
  1 28  1  0
  2 29  1  1
  3 30  1  0
  3 31  1  0
  4 32  1  0
  4 33  1  0
  8 34  1  0
  9 35  1  0
  9 36  1  0
 10 37  1  6
 12 38  1  1
 13 39  1  0
 14 40  1  1
 15 41  1  0
 16 42  1  6
 18 43  1  0
 22 44  1  0
 22 45  1  0
 24 46  1  0
M  CHG  1  17   1
M  END
