1IG3_VIB_B_501
     RDKit          3D

 18 19  0  0  0  0  0  0  0  0999 V2000
    0.5205   63.9927   19.0024 C   0  0  0  0  0  0  0  0  0  0  0  0
   -3.6224   63.6020   16.5449 N   0  0  0  0  0  0  0  0  0  0  0  0
   -8.0474   63.5702   18.1331 C   0  0  0  0  0  0  0  0  0  0  0  0
  -10.4125   58.8761   18.4064 O   0  0  0  0  0  0  0  0  0  0  0  0
   -9.0695   59.2060   18.5968 C   0  0  0  0  0  0  0  0  0  0  0  0
   -8.9545   60.6931   18.4961 C   0  0  0  0  0  0  0  0  0  0  0  0
   -5.1191   61.7027   19.4531 C   0  0  0  0  0  0  0  0  0  0  0  0
   -6.2671   60.2247   19.4147 S   0  0  0  0  0  0  0  0  0  0  0  0
   -7.6034   61.2292   18.8059 C   0  0  0  0  0  0  0  0  0  0  0  0
   -7.1011   62.5038   18.6926 C   0  0  0  0  0  0  0  0  0  0  0  0
   -5.8460   62.7117   19.0273 N   0  0  0  0  0  0  0  0  0  0  0  0
   -5.2345   64.0697   18.9542 C   0  0  0  0  0  0  0  0  0  0  0  0
   -3.0263   63.8083   17.8047 C   0  0  0  0  0  0  0  0  0  0  0  0
   -1.6830   63.7951   17.8543 N   0  0  0  0  0  0  0  0  0  0  0  0
   -0.9605   64.0005   18.9400 C   0  0  0  0  0  0  0  0  0  0  0  0
   -1.6327   64.2446   20.0939 N   0  0  0  0  0  0  0  0  0  0  0  0
   -2.9935   64.2694   20.1013 C   0  0  0  0  0  0  0  0  0  0  0  0
   -3.7597   64.0545   18.9730 C   0  0  0  0  0  0  0  0  0  0  0  0
  4  5  1  0
  5  6  1  0
  7  8  1  0
  6  9  1  0
  8  9  1  0
  3 10  1  0
  9 10  2  0
  7 11  2  0
 10 11  1  0
 11 12  1  0
  2 13  1  0
 13 14  2  0
  1 15  1  0
 14 15  1  0
 15 16  2  0
 16 17  1  0
 12 18  1  0
 13 18  1  0
 17 18  2  0
M  CHG  1  11   1
M  END
$$$$
