1IG3_VIB_B_501
     RDKit          3D

 18 19  0  0  0  0  0  0  0  0999 V2000
   -3.2027   40.8051   20.5996 C   0  0  0  0  0  0  0  0  0  0  0  0
   -3.6312   45.5728   21.2629 N   0  0  0  0  0  0  0  0  0  0  0  0
   -4.0952   48.7827   19.5700 C   0  0  0  0  0  0  0  0  0  0  0  0
   -8.2465   51.0788   21.7951 O   0  0  0  0  0  0  0  0  0  0  0  0
   -8.1352   49.8040   21.2375 C   0  0  0  0  0  0  0  0  0  0  0  0
   -6.8120   49.7312   20.5456 C   0  0  0  0  0  0  0  0  0  0  0  0
   -6.4963   46.0489   18.8174 C   0  0  0  0  0  0  0  0  0  0  0  0
   -7.7672   47.1949   19.5759 S   0  0  0  0  0  0  0  0  0  0  0  0
   -6.5210   48.4206   19.9080 C   0  0  0  0  0  0  0  0  0  0  0  0
   -5.3369   47.8943   19.4491 C   0  0  0  0  0  0  0  0  0  0  0  0
   -5.3558   46.6966   18.9054 N   0  0  0  0  0  0  0  0  0  0  0  0
   -4.1099   46.0480   18.4049 C   0  0  0  0  0  0  0  0  0  0  0  0
   -3.6371   44.5181   20.3288 C   0  0  0  0  0  0  0  0  0  0  0  0
   -3.4265   43.2789   20.8057 N   0  0  0  0  0  0  0  0  0  0  0  0
   -3.4288   42.1753   20.0813 C   0  0  0  0  0  0  0  0  0  0  0  0
   -3.6635   42.3085   18.7508 N   0  0  0  0  0  0  0  0  0  0  0  0
   -3.8828   43.5400   18.2144 C   0  0  0  0  0  0  0  0  0  0  0  0
   -3.8813   44.7012   18.9613 C   0  0  0  0  0  0  0  0  0  0  0  0
  4  5  1  0
  5  6  1  0
  7  8  1  0
  6  9  1  0
  8  9  1  0
  3 10  1  0
  9 10  2  0
  7 11  2  0
 10 11  1  0
 11 12  1  0
  2 13  1  0
 13 14  2  0
  1 15  1  0
 14 15  1  0
 15 16  2  0
 16 17  1  0
 12 18  1  0
 13 18  1  0
 17 18  2  0
M  CHG  1  11   1
M  END
$$$$
