1IG3_VIB_B_501
     RDKit          3D

 18 19  0  0  0  0  0  0  0  0999 V2000
   -1.4545   62.2479   24.8936 C   0  0  0  0  0  0  0  0  0  0  0  0
   -2.8607   66.8432   24.3829 N   0  0  0  0  0  0  0  0  0  0  0  0
   -1.3617   70.2995   22.1958 C   0  0  0  0  0  0  0  0  0  0  0  0
    0.4864   74.0321   25.3937 O   0  0  0  0  0  0  0  0  0  0  0  0
    0.6364   72.6463   25.4679 C   0  0  0  0  0  0  0  0  0  0  0  0
    0.0672   72.0659   24.2134 C   0  0  0  0  0  0  0  0  0  0  0  0
    0.6579   68.0308   24.3358 C   0  0  0  0  0  0  0  0  0  0  0  0
    1.1667   69.6021   25.2167 S   0  0  0  0  0  0  0  0  0  0  0  0
    0.1799   70.5874   24.1117 C   0  0  0  0  0  0  0  0  0  0  0  0
   -0.4066   69.7054   23.2354 C   0  0  0  0  0  0  0  0  0  0  0  0
   -0.1459   68.4234   23.3727 N   0  0  0  0  0  0  0  0  0  0  0  0
   -0.7249   67.4069   22.4481 C   0  0  0  0  0  0  0  0  0  0  0  0
   -1.9284   65.8576   24.0028 C   0  0  0  0  0  0  0  0  0  0  0  0
   -2.0671   64.6402   24.5559 N   0  0  0  0  0  0  0  0  0  0  0  0
   -1.3054   63.5945   24.2924 C   0  0  0  0  0  0  0  0  0  0  0  0
   -0.3056   63.7684   23.3907 N   0  0  0  0  0  0  0  0  0  0  0  0
   -0.1195   64.9805   22.8002 C   0  0  0  0  0  0  0  0  0  0  0  0
   -0.9083   66.0814   23.0687 C   0  0  0  0  0  0  0  0  0  0  0  0
  4  5  1  0
  5  6  1  0
  7  8  1  0
  6  9  1  0
  8  9  1  0
  3 10  1  0
  9 10  2  0
  7 11  2  0
 10 11  1  0
 11 12  1  0
  2 13  1  0
 13 14  2  0
  1 15  1  0
 14 15  1  0
 15 16  2  0
 16 17  1  0
 12 18  1  0
 13 18  1  0
 17 18  2  0
M  CHG  1  11   1
M  END
$$$$
