1IG3_VIB_B_501
     RDKit          3D

 18 19  0  0  0  0  0  0  0  0999 V2000
  -11.5770   68.5261    7.2141 C   0  0  0  0  0  0  0  0  0  0  0  0
  -11.4143   68.0063   12.0161 N   0  0  0  0  0  0  0  0  0  0  0  0
   -7.7722   69.3313   14.9656 C   0  0  0  0  0  0  0  0  0  0  0  0
   -5.0285   65.2757   16.8684 O   0  0  0  0  0  0  0  0  0  0  0  0
   -5.6227   65.4273   15.6144 C   0  0  0  0  0  0  0  0  0  0  0  0
   -6.1598   66.8203   15.5383 C   0  0  0  0  0  0  0  0  0  0  0  0
   -7.8800   67.2826   11.8678 C   0  0  0  0  0  0  0  0  0  0  0  0
   -6.8392   66.0707   12.8435 S   0  0  0  0  0  0  0  0  0  0  0  0
   -6.8383   67.1503   14.2577 C   0  0  0  0  0  0  0  0  0  0  0  0
   -7.5727   68.2543   13.8950 C   0  0  0  0  0  0  0  0  0  0  0  0
   -8.0841   68.2928   12.6837 N   0  0  0  0  0  0  0  0  0  0  0  0
   -8.8731   69.4651   12.2077 C   0  0  0  0  0  0  0  0  0  0  0  0
  -10.7645   68.5127   10.8731 C   0  0  0  0  0  0  0  0  0  0  0  0
  -11.3667   68.3102    9.6883 N   0  0  0  0  0  0  0  0  0  0  0  0
  -10.9171   68.7404    8.5240 C   0  0  0  0  0  0  0  0  0  0  0  0
   -9.7552   69.4426    8.5301 N   0  0  0  0  0  0  0  0  0  0  0  0
   -9.1030   69.6768    9.7016 C   0  0  0  0  0  0  0  0  0  0  0  0
   -9.5625   69.2308   10.9249 C   0  0  0  0  0  0  0  0  0  0  0  0
  4  5  1  0
  5  6  1  0
  7  8  1  0
  6  9  1  0
  8  9  1  0
  3 10  1  0
  9 10  2  0
  7 11  2  0
 10 11  1  0
 11 12  1  0
  2 13  1  0
 13 14  2  0
  1 15  1  0
 14 15  1  0
 15 16  2  0
 16 17  1  0
 12 18  1  0
 13 18  1  0
 17 18  2  0
M  CHG  1  11   1
M  END
$$$$
