1IG3_VIB_B_501
     RDKit          3D

 18 19  0  0  0  0  0  0  0  0999 V2000
   18.3469   49.5552   38.0296 C   0  0  0  0  0  0  0  0  0  0  0  0
   14.8179   48.2449   34.9990 N   0  0  0  0  0  0  0  0  0  0  0  0
   10.7807   49.6945   34.1581 C   0  0  0  0  0  0  0  0  0  0  0  0
    7.6572   45.4703   34.4412 O   0  0  0  0  0  0  0  0  0  0  0  0
    8.7828   45.7901   35.2023 C   0  0  0  0  0  0  0  0  0  0  0  0
    9.2475   47.1432   34.7687 C   0  0  0  0  0  0  0  0  0  0  0  0
   12.3892   48.1916   37.1512 C   0  0  0  0  0  0  0  0  0  0  0  0
   11.1032   46.8465   36.9491 S   0  0  0  0  0  0  0  0  0  0  0  0
   10.4027   47.6743   35.5386 C   0  0  0  0  0  0  0  0  0  0  0  0
   11.1489   48.8143   35.3561 C   0  0  0  0  0  0  0  0  0  0  0  0
   12.1428   49.0484   36.1854 N   0  0  0  0  0  0  0  0  0  0  0  0
   12.9839   50.2740   36.0675 C   0  0  0  0  0  0  0  0  0  0  0  0
   15.1967   49.1040   36.0495 C   0  0  0  0  0  0  0  0  0  0  0  0
   16.4426   48.9632   36.5344 N   0  0  0  0  0  0  0  0  0  0  0  0
   16.9729   49.7002   37.4928 C   0  0  0  0  0  0  0  0  0  0  0  0
   16.1941   50.6759   38.0262 N   0  0  0  0  0  0  0  0  0  0  0  0
   14.9243   50.8625   37.5731 C   0  0  0  0  0  0  0  0  0  0  0  0
   14.3584   50.0973   36.5728 C   0  0  0  0  0  0  0  0  0  0  0  0
  4  5  1  0
  5  6  1  0
  7  8  1  0
  6  9  1  0
  8  9  1  0
  3 10  1  0
  9 10  2  0
  7 11  2  0
 10 11  1  0
 11 12  1  0
  2 13  1  0
 13 14  2  0
  1 15  1  0
 14 15  1  0
 15 16  2  0
 16 17  1  0
 12 18  1  0
 13 18  1  0
 17 18  2  0
M  CHG  1  11   1
M  END
$$$$
