1IG3_VIB_B_501
     RDKit          3D

 18 19  0  0  0  0  0  0  0  0999 V2000
   -1.1545   57.7430   27.1143 C   0  0  0  0  0  0  0  0  0  0  0  0
    3.0748   55.5773   27.9960 N   0  0  0  0  0  0  0  0  0  0  0  0
    4.1698   51.0042   28.0235 C   0  0  0  0  0  0  0  0  0  0  0  0
    7.5445   52.4674   24.4606 O   0  0  0  0  0  0  0  0  0  0  0  0
    6.9732   51.1944   24.4991 C   0  0  0  0  0  0  0  0  0  0  0  0
    6.2286   51.0760   25.7900 C   0  0  0  0  0  0  0  0  0  0  0  0
    2.9574   53.5029   25.5554 C   0  0  0  0  0  0  0  0  0  0  0  0
    4.5039   53.0510   24.6025 S   0  0  0  0  0  0  0  0  0  0  0  0
    4.9930   51.8985   25.8666 C   0  0  0  0  0  0  0  0  0  0  0  0
    4.0143   51.9518   26.8304 C   0  0  0  0  0  0  0  0  0  0  0  0
    3.0014   52.7707   26.6462 N   0  0  0  0  0  0  0  0  0  0  0  0
    1.9121   52.9025   27.6558 C   0  0  0  0  0  0  0  0  0  0  0  0
    1.7089   55.3969   27.7018 C   0  0  0  0  0  0  0  0  0  0  0  0
    0.9609   56.5062   27.5700 N   0  0  0  0  0  0  0  0  0  0  0  0
   -0.3238   56.5249   27.2665 C   0  0  0  0  0  0  0  0  0  0  0  0
   -0.9317   55.3266   27.0729 N   0  0  0  0  0  0  0  0  0  0  0  0
   -0.2220   54.1715   27.1941 C   0  0  0  0  0  0  0  0  0  0  0  0
    1.1211   54.1392   27.5124 C   0  0  0  0  0  0  0  0  0  0  0  0
  4  5  1  0
  5  6  1  0
  7  8  1  0
  6  9  1  0
  8  9  1  0
  3 10  1  0
  9 10  2  0
  7 11  2  0
 10 11  1  0
 11 12  1  0
  2 13  1  0
 13 14  2  0
  1 15  1  0
 14 15  1  0
 15 16  2  0
 16 17  1  0
 12 18  1  0
 13 18  1  0
 17 18  2  0
M  CHG  1  11   1
M  END
$$$$
