1UNL_RRC_A_1293
     RDKit          3D

 52 54  0  0  0  0  0  0  0  0999 V2000
   61.4914   29.2955   31.1846 O   0  0  0  0  0  0  0  0  0  0  0  0
   62.5687   28.8873   31.9915 C   0  0  0  0  0  0  0  0  0  0  0  0
   62.9343   27.4600   31.5724 C   0  0  2  0  0  0  0  0  0  0  0  0
   64.4608   27.3710   31.5361 C   0  0  0  0  0  0  0  0  0  0  0  0
   65.1167   28.1255   30.3987 C   0  0  0  0  0  0  0  0  0  0  0  0
   62.3075   27.3283   30.2648 N   0  0  0  0  0  0  0  0  0  0  0  0
   62.1250   28.3162   29.3516 C   0  0  0  0  0  0  0  0  0  0  0  0
   63.2186   28.9103   28.8157 N   0  0  0  0  0  0  0  0  0  0  0  0
   63.0677   29.8909   27.9092 C   0  0  0  0  0  0  0  0  0  0  0  0
   64.0116   30.5816   27.3126 N   0  0  0  0  0  4  0  0  0  0  0  0
   65.3974   30.2363   27.6685 C   0  0  2  0  0  0  0  0  0  0  0  0
   65.4264   28.7331   27.9419 C   0  0  0  0  0  0  0  0  0  0  0  0
   65.9123   31.2030   28.7016 C   0  0  0  0  0  0  0  0  0  0  0  0
   63.3991   31.4777   26.4882 C   0  0  0  0  0  0  0  0  0  0  0  0
   61.8629   30.3105   27.4712 C   0  0  0  0  0  0  0  0  0  0  0  0
   62.0264   31.3159   26.5146 N   0  0  0  0  0  0  0  0  0  0  0  0
   60.9126   28.7236   28.9331 N   0  0  0  0  0  0  0  0  0  0  0  0
   60.7527   29.6952   28.0249 C   0  0  0  0  0  0  0  0  0  0  0  0
   59.5437   30.1282   27.6430 N   0  0  0  0  0  0  0  0  0  0  0  0
   59.3719   31.3386   26.8428 C   0  0  0  0  0  0  0  0  0  0  0  0
   60.4279   31.5336   25.7801 C   0  0  0  0  0  0  0  0  0  0  0  0
   61.4761   32.4358   25.9944 C   0  0  0  0  0  0  0  0  0  0  0  0
   62.4606   32.6098   25.0140 C   0  0  0  0  0  0  0  0  0  0  0  0
   62.4188   31.8591   23.8360 C   0  0  0  0  0  0  0  0  0  0  0  0
   61.3864   30.9411   23.6322 C   0  0  0  0  0  0  0  0  0  0  0  0
   60.3921   30.7801   24.6023 C   0  0  0  0  0  0  0  0  0  0  0  0
   61.2324   30.1992   31.4239 H   0  0  0  0  0  0  0  0  0  0  0  0
   63.4049   29.5383   31.8431 H   0  0  0  0  0  0  0  0  0  0  0  0
   62.3019   28.9223   33.0271 H   0  0  0  0  0  0  0  0  0  0  0  0
   62.6049   26.6758   32.2214 H   0  0  0  0  0  0  0  0  0  0  0  0
   64.8387   27.7636   32.4570 H   0  0  0  0  0  0  0  0  0  0  0  0
   64.6977   26.3382   31.3870 H   0  0  0  0  0  0  0  0  0  0  0  0
   64.9109   29.1708   30.4986 H   0  0  0  0  0  0  0  0  0  0  0  0
   66.1744   27.9659   30.4278 H   0  0  0  0  0  0  0  0  0  0  0  0
   64.7284   27.7730   29.4660 H   0  0  0  0  0  0  0  0  0  0  0  0
   61.9831   26.4321   30.0178 H   0  0  0  0  0  0  0  0  0  0  0  0
   66.1209   30.3698   26.8916 H   0  0  0  0  0  0  0  0  0  0  0  0
   64.7258   28.4977   28.7157 H   0  0  0  0  0  0  0  0  0  0  0  0
   65.1643   28.2032   27.0501 H   0  0  0  0  0  0  0  0  0  0  0  0
   66.4096   28.4458   28.2515 H   0  0  0  0  0  0  0  0  0  0  0  0
   65.2742   31.1807   29.5602 H   0  0  0  0  0  0  0  0  0  0  0  0
   66.9049   30.9241   28.9876 H   0  0  0  0  0  0  0  0  0  0  0  0
   65.9236   32.1911   28.2912 H   0  0  0  0  0  0  0  0  0  0  0  0
   63.8940   32.1830   25.9201 H   0  0  0  0  0  0  0  0  0  0  0  0
   58.7469   29.6152   27.9095 H   0  0  0  0  0  0  0  0  0  0  0  0
   58.4171   31.2905   26.3623 H   0  0  0  0  0  0  0  0  0  0  0  0
   59.4561   32.1665   27.5156 H   0  0  0  0  0  0  0  0  0  0  0  0
   61.5234   32.9725   26.8745 H   0  0  0  0  0  0  0  0  0  0  0  0
   63.2189   33.2941   25.1617 H   0  0  0  0  0  0  0  0  0  0  0  0
   63.1497   31.9829   23.1179 H   0  0  0  0  0  0  0  0  0  0  0  0
   61.3573   30.3815   22.7657 H   0  0  0  0  0  0  0  0  0  0  0  0
   59.6289   30.1027   24.4485 H   0  0  0  0  0  0  0  0  0  0  0  0
  1  2  1  0
  3  2  1  0
  3  4  1  0
  4  5  1  0
  3  6  1  0
  6  7  1  0
  7  8  4  0
  8  9  4  0
  9 10  4  0
 10 11  1  0
 11 12  1  0
 11 13  1  0
 10 14  4  0
  9 15  4  0
 14 16  4  0
 15 16  4  0
  7 17  4  0
 15 18  4  0
 17 18  4  0
 18 19  1  0
 19 20  1  0
 20 21  1  0
 21 22  4  0
 22 23  4  0
 23 24  4  0
 24 25  4  0
 21 26  4  0
 25 26  4  0
  1 27  1  0
  2 28  1  0
  2 29  1  0
  3 30  1  6
  4 31  1  0
  4 32  1  0
  5 33  1  0
  5 34  1  0
  5 35  1  0
  6 36  1  0
 11 37  1  1
 12 38  1  0
 12 39  1  0
 12 40  1  0
 13 41  1  0
 13 42  1  0
 13 43  1  0
 14 44  1  0
 19 45  1  0
 20 46  1  0
 20 47  1  0
 22 48  1  0
 23 49  1  0
 24 50  1  0
 25 51  1  0
 26 52  1  0
M  CHG  1  10   1
M  END
