7MOI_HPS_A_501
     RDKit          3D

 11 11  0  0  0  0  0  0  0  0999 V2000
   22.4071   19.6930    5.5228 C   0  0  0  0  0  0  0  0  0  0  0  0
   23.4149   18.7735    5.8152 C   0  0  0  0  0  0  0  0  0  0  0  0
   23.1712   17.6555    6.6166 C   0  0  0  0  0  0  0  0  0  0  0  0
   21.9019   17.4544    7.1261 C   0  0  0  0  0  0  0  0  0  0  0  0
   20.8917   18.3721    6.8389 C   0  0  0  0  0  0  0  0  0  0  0  0
   21.1386   19.4862    6.0402 C   0  0  0  0  0  0  0  0  0  0  0  0
   19.5714   18.2359    7.3368 O   0  0  0  0  0  0  0  0  0  0  0  0
   18.8750   16.9190    7.8550 P   0  0  1  0  0  0  0  0  0  0  0  0
   17.5429   17.4617    8.2903 O   0  0  0  0  0  0  0  0  0  0  0  0
   18.6724   15.9160    6.7718 O   0  0  0  0  0  0  0  0  0  0  0  0
   19.6123   16.3352    9.0152 O   0  0  0  0  0  0  0  0  0  0  0  0
  1  2  2  0
  2  3  1  0
  3  4  2  0
  4  5  1  0
  1  6  1  0
  5  6  2  0
  5  7  1  0
  7  8  1  0
  8  9  1  1
  8 10  1  0
  8 11  2  0
M  END
