@<TRIPOS>MOLECULE
1SJ0_E4D_A_600
 62 66 0 0 0
SMALL
GASTEIGER

@<TRIPOS>ATOM
      1 C          -3.0516    0.5962    1.2288 C.3     1  UNL1        0.0760
      2 C          -1.7105    0.3637    1.9491 C.3     1  UNL1        0.1412
      3 O          -1.8757   -0.4241    3.1229 O.3     1  UNL1       -0.4817
      4 C          -2.8496   -0.1808    4.0942 C.ar    1  UNL1        0.1350
      5 C          -2.7416   -0.8483    5.3197 C.ar    1  UNL1       -0.0154
      6 C          -3.7193   -0.6872    6.3034 C.ar    1  UNL1       -0.0167
      7 C          -4.8223    0.1358    6.0668 C.ar    1  UNL1        0.1181
      8 O          -5.7963    0.2805    7.0520 O.3     1  UNL1       -0.5067
      9 C          -4.9399    0.8050    4.8418 C.ar    1  UNL1       -0.0032
     10 C          -3.9554    0.6635    3.8543 C.ar    1  UNL1        0.0537
     11 S          -4.2013    1.5414    2.2957 S.3     1  UNL1       -0.1094
     12 C          -3.6673   -0.6611    0.6277 C.ar    1  UNL1       -0.0301
     13 C          -4.4059   -1.5850    1.3934 C.ar    1  UNL1       -0.0539
     14 C          -4.9069   -2.7525    0.8101 C.ar    1  UNL1       -0.0199
     15 C          -4.6729   -3.0219   -0.5432 C.ar    1  UNL1        0.1169
     16 O          -5.1652   -4.1841   -1.1324 O.3     1  UNL1       -0.5068
     17 C          -3.9364   -2.1174   -1.3106 C.ar    1  UNL1       -0.0199
     18 C          -3.4359   -0.9484   -0.7318 C.ar    1  UNL1       -0.0539
     19 C          -0.6881   -0.2710    1.0311 C.ar    1  UNL1       -0.0057
     20 C           0.0989    0.5383    0.1968 C.ar    1  UNL1       -0.0516
     21 C           1.0059   -0.0353   -0.6987 C.ar    1  UNL1       -0.0196
     22 C           1.1355   -1.4349   -0.7808 C.ar    1  UNL1        0.1206
     23 C           0.3387   -2.2406    0.0399 C.ar    1  UNL1       -0.0196
     24 C          -0.5678   -1.6686    0.9357 C.ar    1  UNL1       -0.0516
     25 O           2.0267   -2.0670   -1.6638 O.3     1  UNL1       -0.4907
     26 C           2.9698   -1.4063   -2.5078 C.3     1  UNL1        0.1022
     27 C           4.1813   -0.9255   -1.6843 C.3     1  UNL1        0.0331
     28 N           5.1560   -0.1276   -2.4591 N.3     1  UNL1       -0.2991
     29 C           5.9259   -0.9237   -3.4412 C.3     1  UNL1       -0.0010
     30 C           6.7992   -0.0144   -4.3098 C.3     1  UNL1       -0.0402
     31 C           5.9440    0.9803   -5.1175 C.3     1  UNL1       -0.0507
     32 C           4.5658    1.2411   -4.4846 C.3     1  UNL1       -0.0402
     33 C           4.6325    1.1722   -2.9524 C.3     1  UNL1       -0.0010
     34 H          -2.8390    1.2986    0.3923 H       1  UNL1        0.0504
     35 H          -1.3194    1.3554    2.2710 H       1  UNL1        0.0799
     36 H          -1.8993   -1.5025    5.5059 H       1  UNL1        0.0656
     37 H          -3.6242   -1.2098    7.2467 H       1  UNL1        0.0655
     38 H          -6.6087    0.8695    6.9110 H       1  UNL1        0.2921
     39 H          -5.7983    1.4394    4.6587 H       1  UNL1        0.0666
     40 H          -4.6056   -1.4191    2.4384 H       1  UNL1        0.0622
     41 H          -5.4747   -3.4496    1.4132 H       1  UNL1        0.0654
     42 H          -5.7023   -4.8601   -0.6019 H       1  UNL1        0.2921
     43 H          -3.7464   -2.3229   -2.3564 H       1  UNL1        0.0654
     44 H          -2.8534   -0.2717   -1.3449 H       1  UNL1        0.0622
     45 H           0.0042    1.6166    0.2338 H       1  UNL1        0.0623
     46 H           1.5923    0.6211   -1.3244 H       1  UNL1        0.0654
     47 H           0.4190   -3.3186   -0.0212 H       1  UNL1        0.0654
     48 H          -1.1853   -2.3182    1.5434 H       1  UNL1        0.0623
     49 H           3.3061   -2.1443   -3.2626 H       1  UNL1        0.0709
     50 H           2.4763   -0.5790   -3.0569 H       1  UNL1        0.0709
     51 H           3.8309   -0.3201   -0.8215 H       1  UNL1        0.0460
     52 H           4.6920   -1.8120   -1.2486 H       1  UNL1        0.0460
     53 H           6.5824   -1.6385   -2.8995 H       1  UNL1        0.0427
     54 H           5.2567   -1.5069   -4.1078 H       1  UNL1        0.0427
     55 H           7.4967    0.5469   -3.6496 H       1  UNL1        0.0278
     56 H           7.4112   -0.6319   -5.0024 H       1  UNL1        0.0278
     57 H           5.7933    0.5894   -6.1474 H       1  UNL1        0.0266
     58 H           6.4975    1.9408   -5.2054 H       1  UNL1        0.0266
     59 H           4.1946    2.2404   -4.7987 H       1  UNL1        0.0278
     60 H           3.8404    0.4826   -4.8508 H       1  UNL1        0.0278
     61 H           5.3098    1.9769   -2.5936 H       1  UNL1        0.0427
     62 H           3.6303    1.4042   -2.5317 H       1  UNL1        0.0427
@<TRIPOS>BOND
     1     1     2    1
     2     2     3    1
     3     3     4    1
     4     4     5   ar
     5     5     6   ar
     6     6     7   ar
     7     7     8    1
     8     7     9   ar
     9     4    10   ar
    10     9    10   ar
    11     1    11    1
    12    10    11    1
    13     1    12    1
    14    12    13   ar
    15    13    14   ar
    16    14    15   ar
    17    15    16    1
    18    15    17   ar
    19    12    18   ar
    20    17    18   ar
    21     2    19    1
    22    19    20   ar
    23    20    21   ar
    24    21    22   ar
    25    22    23   ar
    26    19    24   ar
    27    23    24   ar
    28    22    25    1
    29    25    26    1
    30    26    27    1
    31    27    28    1
    32    28    29    1
    33    29    30    1
    34    30    31    1
    35    31    32    1
    36    28    33    1
    37    32    33    1
    38     1    34    1
    39     2    35    1
    40     5    36    1
    41     6    37    1
    42     8    38    1
    43     9    39    1
    44    13    40    1
    45    14    41    1
    46    16    42    1
    47    17    43    1
    48    18    44    1
    49    20    45    1
    50    21    46    1
    51    23    47    1
    52    24    48    1
    53    26    49    1
    54    26    50    1
    55    27    51    1
    56    27    52    1
    57    29    53    1
    58    29    54    1
    59    30    55    1
    60    30    56    1
    61    31    57    1
    62    31    58    1
    63    32    59    1
    64    32    60    1
    65    33    61    1
    66    33    62    1
