
     RDKit          3D

 16 17  0  0  0  0  0  0  0  0999 V2000
   -4.9595    4.6547   30.3099 Cl  0  0  0  0  0  0  0  0  0  0  0  0
   -3.7915    3.3907   30.2623 C   0  0  0  0  0  0  0  0  0  0  0  0
   -3.4692    2.7037   29.1534 C   0  0  0  0  0  0  0  0  0  0  0  0
   -4.0540    2.9433   27.7755 C   0  0  0  0  0  0  0  0  0  0  0  0
   -4.5967    1.7142   27.2320 N   0  0  0  0  0  0  0  0  0  0  0  0
   -5.5798    0.9443   27.9688 C   0  0  0  0  0  0  0  0  0  0  0  0
   -5.9942   -0.1128   26.9407 C   0  0  0  0  0  0  0  0  0  0  0  0
   -4.7486   -0.3410   26.0804 C   0  0  0  0  0  0  0  0  0  0  0  0
   -4.0408    0.9837   26.2202 C   0  0  0  0  0  0  0  0  0  0  0  0
   -3.0218    1.3255   25.5101 N   0  0  0  0  0  0  0  0  0  0  0  0
   -2.5240    1.6959   29.2264 N   0  0  0  0  0  0  0  0  0  0  0  0
   -1.8779    1.3118   30.3637 C   0  0  0  0  0  0  0  0  0  0  0  0
   -1.0826    0.3800   30.3952 O   0  0  0  0  0  0  0  0  0  0  0  0
   -2.1841    2.0346   31.4799 N   0  0  0  0  0  0  0  0  0  0  0  0
   -3.1195    3.0319   31.5464 C   0  0  0  0  0  0  0  0  0  0  0  0
   -3.3817    3.5827   32.6120 O   0  0  0  0  0  0  0  0  0  0  0  0
  1  2  1  0
  2  3  4  0
  3  4  1  0
  4  5  1  0
  5  6  1  0
  6  7  1  0
  7  8  1  0
  5  9  1  0
  8  9  1  0
  9 10  2  3
  3 11  4  0
 11 12  4  0
 12 13  2  0
 12 14  4  0
  2 15  4  0
 14 15  4  0
 15 16  2  0
M  END
