7V3S_5I9_A_1401
     RDKit          3D

 58 63  0  0  0  0  0  0  0  0999 V2000
   -8.6642  -22.6679   29.8863 N   0  0  0  0  0  0  0  0  0  0  0  0
   -8.9830  -12.8209   28.8627 N   0  0  0  0  0  0  0  0  0  0  0  0
   -8.2739  -23.7894   32.0377 C   0  0  0  0  0  0  0  0  0  0  0  0
   -8.7546  -22.6952   31.3114 C   0  0  0  0  0  0  0  0  0  0  0  0
   -9.3260  -21.6025   31.9900 C   0  0  0  0  0  0  0  0  0  0  0  0
   -9.1104  -21.5189   29.1729 C   0  0  0  0  0  0  0  0  0  0  0  0
   -9.6591  -20.4344   29.8764 C   0  0  0  0  0  0  0  0  0  0  0  0
   -9.8572  -19.2360   27.7892 C   0  0  0  0  0  0  0  0  0  0  0  0
  -10.9941  -16.0147   28.9141 C   0  0  0  0  0  0  0  0  0  0  0  0
   -9.3963  -14.1777   29.1187 C   0  0  0  0  0  0  0  0  0  0  0  0
   -8.8993  -16.3522   30.0846 C   0  0  0  0  0  0  0  0  0  0  0  0
   -9.4155   -9.1562   29.1239 C   0  0  2  0  0  0  0  0  0  0  0  0
   -9.5398  -10.2355   26.7274 C   0  0  0  0  0  0  0  0  0  0  0  0
   -8.0911   -9.8280   28.8058 C   0  0  2  0  0  0  0  0  0  0  0  0
  -11.3735   -9.6186   23.8276 C   0  0  0  0  0  0  0  0  0  0  0  0
  -13.5497  -10.6156   23.4414 C   0  0  0  0  0  0  0  0  0  0  0  0
  -12.6906  -10.4269   25.6931 C   0  0  0  0  0  0  0  0  0  0  0  0
   -9.4120  -21.6100   33.3861 C   0  0  0  0  0  0  0  0  0  0  0  0
  -10.0201  -19.2738   29.1847 C   0  0  0  0  0  0  0  0  0  0  0  0
  -10.1311  -16.8469   29.6339 C   0  0  0  0  0  0  0  0  0  0  0  0
  -10.6235  -14.6903   28.6418 C   0  0  0  0  0  0  0  0  0  0  0  0
   -8.5296  -15.0320   29.8178 C   0  0  0  0  0  0  0  0  0  0  0  0
   -9.8471  -11.6734   28.8622 C   0  0  0  0  0  0  0  0  0  0  0  0
   -9.3813  -10.3892   28.2275 C   0  0  1  0  0  0  0  0  0  0  0  0
   -8.9149  -22.6954   34.1051 C   0  0  0  0  0  0  0  0  0  0  0  0
  -11.5326   -9.7883   25.2123 C   0  0  0  0  0  0  0  0  0  0  0  0
  -12.3820  -10.0274   22.9513 C   0  0  0  0  0  0  0  0  0  0  0  0
  -13.6956  -10.8309   24.8066 C   0  0  0  0  0  0  0  0  0  0  0  0
   -8.3461  -23.7827   33.4327 C   0  0  0  0  0  0  0  0  0  0  0  0
   -9.3309  -20.3485   27.1284 C   0  0  0  0  0  0  0  0  0  0  0  0
   -8.0493  -17.1586   30.7624 F   0  0  0  0  0  0  0  0  0  0  0  0
  -14.5337  -10.9962   22.5917 F   0  0  0  0  0  0  0  0  0  0  0  0
   -8.9573  -21.4486   27.8253 N   0  0  0  0  0  0  0  0  0  0  0  0
  -10.5257   -9.3554   26.1492 N   0  0  0  0  0  0  0  0  0  0  0  0
   -9.7877  -20.5017   31.2666 O   0  0  0  0  0  0  0  0  0  0  0  0
  -10.4901  -18.1694   29.9143 O   0  0  0  0  0  0  0  0  0  0  0  0
  -10.9798  -11.7157   29.4156 O   0  0  0  0  0  0  0  0  0  0  0  0
   -8.7320  -10.8474   25.9747 O   0  0  0  0  0  0  0  0  0  0  0  0
   -8.2493  -23.4815   29.3718 H   0  0  0  0  0  0  0  0  0  0  0  0
   -7.9553  -12.6391   28.7668 H   0  0  0  0  0  0  0  0  0  0  0  0
   -7.8359  -24.6392   31.5214 H   0  0  0  0  0  0  0  0  0  0  0  0
  -10.1221  -18.3600   27.2132 H   0  0  0  0  0  0  0  0  0  0  0  0
  -11.9428  -16.3950   28.5460 H   0  0  0  0  0  0  0  0  0  0  0  0
   -9.5445   -8.1665   28.6381 H   0  0  0  0  0  0  0  0  0  0  0  0
   -9.7407   -9.3256   30.1679 H   0  0  0  0  0  0  0  0  0  0  0  0
   -7.6632  -10.3849   29.6647 H   0  0  0  0  0  0  0  0  0  0  0  0
   -7.4480   -9.2421   28.1208 H   0  0  0  0  0  0  0  0  0  0  0  0
  -10.4675   -9.1889   23.4201 H   0  0  0  0  0  0  0  0  0  0  0  0
  -12.8230  -10.5804   26.7544 H   0  0  0  0  0  0  0  0  0  0  0  0
   -9.8503  -20.7714   33.9114 H   0  0  0  0  0  0  0  0  0  0  0  0
  -11.2872  -14.0861   28.0369 H   0  0  0  0  0  0  0  0  0  0  0  0
   -7.5666  -14.6684   30.1624 H   0  0  0  0  0  0  0  0  0  0  0  0
   -8.9696  -22.6901   35.1832 H   0  0  0  0  0  0  0  0  0  0  0  0
  -12.2574   -9.8701   21.8852 H   0  0  0  0  0  0  0  0  0  0  0  0
  -14.5910  -11.3118   25.1829 H   0  0  0  0  0  0  0  0  0  0  0  0
   -7.9547  -24.6147   33.9908 H   0  0  0  0  0  0  0  0  0  0  0  0
   -9.1924  -20.3213   26.0522 H   0  0  0  0  0  0  0  0  0  0  0  0
  -10.4065   -8.3244   26.2589 H   0  0  0  0  0  0  0  0  0  0  0  0
  3  4  1  0
  1  4  1  0
  4  5  2  0
  1  6  1  0
  6  7  2  0
  2 10  1  0
 12 14  1  0
  5 18  1  0
  8 19  2  0
  7 19  1  0
  9 20  2  0
 11 20  1  0
  9 21  1  0
 10 21  2  0
 10 22  1  0
 11 22  2  0
  2 23  1  0
 24 13  1  6
 12 24  1  0
 14 24  1  0
 23 24  1  0
 18 25  2  0
 17 26  1  0
 15 26  2  0
 16 27  2  0
 15 27  1  0
 16 28  1  0
 17 28  2  0
 25 29  1  0
  3 29  2  0
  8 30  1  0
 11 31  1  0
 16 32  1  0
  6 33  1  0
 30 33  2  0
 26 34  1  0
 13 34  1  0
  5 35  1  0
  7 35  1  0
 20 36  1  0
 19 36  1  0
 23 37  2  0
 13 38  2  0
  1 39  1  0
  2 40  1  0
  3 41  1  0
  8 42  1  0
  9 43  1  0
 12 44  1  6
 12 45  1  0
 14 46  1  1
 14 47  1  0
 15 48  1  0
 17 49  1  0
 18 50  1  0
 21 51  1  0
 22 52  1  0
 25 53  1  0
 27 54  1  0
 28 55  1  0
 29 56  1  0
 30 57  1  0
 34 58  1  0
M  END
