7B94_ANP_B_401
     RDKit          3D

 48 50  0  0  0  0  0  0  0  0999 V2000
   -1.5103    2.0837   -2.1601 P   0  0  1  0  0  5  0  0  0  0  0  0
   -0.1204    2.5679   -2.5018 O   0  0  0  0  0  0  0  0  0  0  0  0
   -1.4934    1.4384   -0.5970 O   0  0  0  0  0  0  0  0  0  0  0  0
   -2.5797    3.3956   -2.2227 O   0  0  0  0  0  0  0  0  0  0  0  0
   -0.5457    0.0578   -3.9460 P   0  0  1  0  0  5  0  0  0  0  0  0
    0.2347   -0.5862   -2.8204 O   0  0  0  0  0  0  0  0  0  0  0  0
   -1.0032   -1.1460   -5.0432 O   0  0  0  0  0  0  0  0  0  0  0  0
   -1.9904    0.8399   -3.3096 N   0  0  0  0  0  0  0  0  0  0  0  0
    2.0189    1.0839   -4.1328 P   0  0  1  0  0  5  0  0  0  0  0  0
    2.0696    0.1203   -2.9643 O   0  0  0  0  0  0  0  0  0  0  0  0
    3.0591    0.5343   -5.3523 O   0  0  0  0  0  0  0  0  0  0  0  0
    0.4483    1.1602   -4.7841 O   0  0  0  0  0  0  0  0  0  0  0  0
    2.4952    2.6495   -3.6502 O   0  0  0  0  0  0  0  0  0  0  0  0
    1.3441    3.4371   -3.4565 C   0  0  0  0  0  0  0  0  0  0  0  0
    0.0941    2.5998   -3.7447 C   0  0  2  0  0  0  0  0  0  0  0  0
   -0.9803    3.0637   -2.9612 O   0  0  0  0  0  0  0  0  0  0  0  0
    0.2945    1.1188   -3.4399 C   0  0  2  0  0  0  0  0  0  0  0  0
    0.8420    0.4436   -4.5464 O   0  0  0  0  0  0  0  0  0  0  0  0
   -1.1143    0.6601   -3.1121 C   0  0  2  0  0  0  0  0  0  0  0  0
   -1.7349    0.0078   -4.1971 O   0  0  0  0  0  0  0  0  0  0  0  0
   -1.8445    1.9668   -2.7529 C   0  0  1  0  0  0  0  0  0  0  0  0
   -2.2906    1.9603   -1.3564 N   0  0  0  0  0  4  0  0  0  0  0  0
   -3.3274    2.6584   -0.8232 C   0  0  0  0  0  0  0  0  0  0  0  0
   -3.4552    2.4949    0.5226 N   0  0  0  0  0  0  0  0  0  0  0  0
   -2.4396    1.6596    0.8165 C   0  0  0  0  0  0  0  0  0  0  0  0
   -2.0401    1.1531    2.0475 C   0  0  0  0  0  0  0  0  0  0  0  0
   -2.7362    1.4690    3.2532 N   0  0  0  0  0  0  0  0  0  0  0  0
   -0.9375    0.3463    2.0737 N   0  0  0  0  0  0  0  0  0  0  0  0
   -0.2438    0.0480    0.9288 C   0  0  0  0  0  0  0  0  0  0  0  0
   -0.6438    0.5548   -0.2761 N   0  0  0  0  0  0  0  0  0  0  0  0
   -1.7412    1.3478   -0.2993 C   0  0  0  0  0  0  0  0  0  0  0  0
   -1.5615    2.2272   -0.0017 H   0  0  0  0  0  0  0  0  0  0  0  0
   -2.5291    3.7235   -3.1536 H   0  0  0  0  0  0  0  0  0  0  0  0
   -0.1883   -1.3387   -5.5668 H   0  0  0  0  0  0  0  0  0  0  0  0
   -2.4486    1.3456   -4.0990 H   0  0  0  0  0  0  0  0  0  0  0  0
    3.8291    0.1333   -4.8769 H   0  0  0  0  0  0  0  0  0  0  0  0
    1.3475    4.3184   -4.1361 H   0  0  0  0  0  0  0  0  0  0  0  0
    1.2742    3.7879   -2.4015 H   0  0  0  0  0  0  0  0  0  0  0  0
   -0.1745    2.7297   -4.8205 H   0  0  0  0  0  0  0  0  0  0  0  0
    0.9469    0.9858   -2.5422 H   0  0  0  0  0  0  0  0  0  0  0  0
    1.0975   -0.4613   -4.2228 H   0  0  0  0  0  0  0  0  0  0  0  0
   -1.0882   -0.0472   -2.2538 H   0  0  0  0  0  0  0  0  0  0  0  0
   -1.7271    0.6257   -4.9763 H   0  0  0  0  0  0  0  0  0  0  0  0
   -2.7310    2.0997   -3.4142 H   0  0  0  0  0  0  0  0  0  0  0  0
   -3.9855    3.2910   -1.4049 H   0  0  0  0  0  0  0  0  0  0  0  0
   -3.5785    2.0889    3.2474 H   0  0  0  0  0  0  0  0  0  0  0  0
   -2.4012    1.0882    4.1655 H   0  0  0  0  0  0  0  0  0  0  0  0
    0.6308   -0.5844    0.9810 H   0  0  0  0  0  0  0  0  0  0  0  0
  1  2  2  0
  1  3  1  6
  1  4  1  0
  5  6  2  0
  5  7  1  1
  1  8  1  0
  5  8  1  0
  9 10  2  0
  9 11  1  1
  5 12  1  0
  9 12  1  0
  9 13  1  0
 13 14  1  0
 15 14  1  0
 15 16  1  0
 15 17  1  0
 17 18  1  0
 17 19  1  0
 19 20  1  0
 16 21  1  0
 19 21  1  0
 21 22  1  0
 22 23  4  0
 23 24  4  0
 24 25  4  0
 25 26  4  0
 26 27  1  0
 26 28  4  0
 28 29  4  0
 29 30  4  0
 22 31  4  0
 25 31  4  0
 30 31  4  0
  3 32  1  0
  4 33  1  0
  7 34  1  0
  8 35  1  0
 11 36  1  0
 14 37  1  0
 14 38  1  0
 15 39  1  1
 17 40  1  6
 18 41  1  0
 19 42  1  6
 20 43  1  0
 21 44  1  1
 23 45  1  0
 27 46  1  0
 27 47  1  0
 29 48  1  0
M  CHG  1  22   1
M  END
