7DKT_GLF_A_1001
     RDKit          3D

 12 12  0  0  0  0  0  0  0  0999 V2000
   61.8986   62.5348   69.1884 C   0  0  1  0  0  0  0  0  0  0  0  0
   62.7029   61.2612   69.4211 C   0  0  1  0  0  0  0  0  0  0  0  0
   64.1971   61.5302   69.1937 C   0  0  2  0  0  0  0  0  0  0  0  0
   64.3915   62.0376   67.7730 C   0  0  1  0  0  0  0  0  0  0  0  0
   63.4896   63.2440   67.4917 C   0  0  1  0  0  0  0  0  0  0  0  0
   63.5397   63.6474   66.0269 C   0  0  0  0  0  0  0  0  0  0  0  0
   62.2757   63.4737   70.1046 F   0  0  0  0  0  0  0  0  0  0  0  0
   62.4502   60.7615   70.7378 O   0  0  0  0  0  0  0  0  0  0  0  0
   64.9775   60.3428   69.3497 O   0  0  0  0  0  0  0  0  0  0  0  0
   65.7642   62.3829   67.5535 O   0  0  0  0  0  0  0  0  0  0  0  0
   62.1195   63.0113   67.8727 O   0  0  0  0  0  0  0  0  0  0  0  0
   62.6026   64.7061   65.7711 O   0  0  0  0  0  0  0  0  0  0  0  0
  1  2  1  0
  2  3  1  0
  3  4  1  0
  4  5  1  0
  5  6  1  6
  1  7  1  1
  2  8  1  1
  3  9  1  6
  4 10  1  1
  1 11  1  0
  5 11  1  0
  6 12  1  0
M  END
