1Q41_IXM_A_451
     RDKit          3D

 21 24  0  0  0  0  0  0  0  0999 V2000
   40.0815    4.0329   35.2789 C   0  0  0  0  0  0  0  0  0  0  0  0
   39.5052    5.4063   35.2476 C   0  0  0  0  0  0  0  0  0  0  0  0
   40.6221    3.8935   36.5228 C   0  0  0  0  0  0  0  0  0  0  0  0
   40.4342    5.0758   37.2888 N   0  0  0  0  0  0  0  0  0  0  0  0
   41.2338    2.6806   36.8148 C   0  0  0  0  0  0  0  0  0  0  0  0
   41.2940    1.6633   35.8942 C   0  0  0  0  0  0  0  0  0  0  0  0
   40.7454    1.8104   34.6379 C   0  0  0  0  0  0  0  0  0  0  0  0
   40.1420    3.0117   34.3550 C   0  0  0  0  0  0  0  0  0  0  0  0
   39.7237    6.0682   36.5096 C   0  0  0  0  0  0  0  0  0  0  0  0
   39.4335    7.2440   37.0056 C   0  0  0  0  0  0  0  0  0  0  0  0
   39.9432    7.7397   38.3108 C   0  0  0  0  0  0  0  0  0  0  0  0
   39.4448    9.0462   38.5569 N   0  0  0  0  0  0  0  0  0  0  0  0
   38.6379    9.3986   37.4573 C   0  0  0  0  0  0  0  0  0  0  0  0
   38.6203    8.3472   36.5331 C   0  0  0  0  0  0  0  0  0  0  0  0
   37.9417   10.5721   37.2474 C   0  0  0  0  0  0  0  0  0  0  0  0
   37.2038   10.7471   36.1166 C   0  0  0  0  0  0  0  0  0  0  0  0
   37.1698    9.7363   35.1987 C   0  0  0  0  0  0  0  0  0  0  0  0
   37.8765    8.5571   35.4219 C   0  0  0  0  0  0  0  0  0  0  0  0
   40.6993    7.1669   39.1350 O   0  0  0  0  0  0  0  0  0  0  0  0
   38.9298    5.8302   34.2149 N   0  0  0  0  0  0  0  0  0  0  0  0
   38.6845    5.2176   33.0497 O   0  0  0  0  0  0  0  0  0  0  0  0
  1  2  1  0
  1  3  2  0
  3  4  1  0
  3  5  1  0
  5  6  2  0
  6  7  1  0
  1  8  1  0
  7  8  2  0
  2  9  1  0
  4  9  1  0
  9 10  2  0
 10 11  1  0
 11 12  1  0
 12 13  1  0
 10 14  1  0
 13 14  2  0
 13 15  1  0
 15 16  2  0
 16 17  1  0
 14 18  1  0
 17 18  2  0
 11 19  2  0
  2 20  2  0
 20 21  1  0
M  END
$$$$
