1Q41_IXM_A_451
     RDKit          3D

 21 24  0  0  0  0  0  0  0  0999 V2000
   36.6341    7.7790   31.8996 C   0  0  0  0  0  0  0  0  0  0  0  0
   37.5056    7.5620   33.0882 C   0  0  0  0  0  0  0  0  0  0  0  0
   35.8734    8.8697   32.2005 C   0  0  0  0  0  0  0  0  0  0  0  0
   36.1938    9.3660   33.4931 N   0  0  0  0  0  0  0  0  0  0  0  0
   34.9605    9.2889   31.2405 C   0  0  0  0  0  0  0  0  0  0  0  0
   34.8264    8.6367   30.0394 C   0  0  0  0  0  0  0  0  0  0  0  0
   35.5987    7.5343   29.7411 C   0  0  0  0  0  0  0  0  0  0  0  0
   36.4995    7.1245   30.6940 C   0  0  0  0  0  0  0  0  0  0  0  0
   37.2336    8.5575   34.0950 C   0  0  0  0  0  0  0  0  0  0  0  0
   37.6963    8.8221   35.2903 C   0  0  0  0  0  0  0  0  0  0  0  0
   37.2772    9.9974   36.0979 C   0  0  0  0  0  0  0  0  0  0  0  0
   37.9622    9.9954   37.3414 N   0  0  0  0  0  0  0  0  0  0  0  0
   38.8005    8.8633   37.3538 C   0  0  0  0  0  0  0  0  0  0  0  0
   38.6560    8.1602   36.1518 C   0  0  0  0  0  0  0  0  0  0  0  0
   39.6573    8.4433   38.3514 C   0  0  0  0  0  0  0  0  0  0  0  0
   40.4013    7.3136   38.1955 C   0  0  0  0  0  0  0  0  0  0  0  0
   40.2789    6.6092   37.0319 C   0  0  0  0  0  0  0  0  0  0  0  0
   39.4110    7.0432   36.0329 C   0  0  0  0  0  0  0  0  0  0  0  0
   36.4544   10.9028   35.8108 O   0  0  0  0  0  0  0  0  0  0  0  0
   38.3290    6.6139   33.1076 N   0  0  0  0  0  0  0  0  0  0  0  0
   38.4085    5.5231   32.3349 O   0  0  0  0  0  0  0  0  0  0  0  0
  1  2  1  0
  1  3  2  0
  3  4  1  0
  3  5  1  0
  5  6  2  0
  6  7  1  0
  1  8  1  0
  7  8  2  0
  2  9  1  0
  4  9  1  0
  9 10  2  0
 10 11  1  0
 11 12  1  0
 12 13  1  0
 10 14  1  0
 13 14  2  0
 13 15  1  0
 15 16  2  0
 16 17  1  0
 14 18  1  0
 17 18  2  0
 11 19  2  0
  2 20  2  0
 20 21  1  0
M  END
$$$$
