1Q41_IXM_A_451
     RDKit          3D

 21 24  0  0  0  0  0  0  0  0999 V2000
   24.4978   -2.0183   21.9307 C   0  0  0  0  0  0  0  0  0  0  0  0
   25.9112   -1.6976   21.5860 C   0  0  0  0  0  0  0  0  0  0  0  0
   24.5472   -3.2034   22.6029 C   0  0  0  0  0  0  0  0  0  0  0  0
   25.8872   -3.6641   22.7135 N   0  0  0  0  0  0  0  0  0  0  0  0
   23.3400   -3.7322   23.0430 C   0  0  0  0  0  0  0  0  0  0  0  0
   22.1464   -3.0930   22.8136 C   0  0  0  0  0  0  0  0  0  0  0  0
   22.1030   -1.8947   22.1332 C   0  0  0  0  0  0  0  0  0  0  0  0
   23.2997   -1.3768   21.7005 C   0  0  0  0  0  0  0  0  0  0  0  0
   26.7909   -2.7295   22.0758 C   0  0  0  0  0  0  0  0  0  0  0  0
   28.0822   -2.9406   22.0493 C   0  0  0  0  0  0  0  0  0  0  0  0
   28.7336   -4.1534   22.6097 C   0  0  0  0  0  0  0  0  0  0  0  0
   30.1386   -4.0753   22.4211 N   0  0  0  0  0  0  0  0  0  0  0  0
   30.4038   -2.8588   21.7621 C   0  0  0  0  0  0  0  0  0  0  0  0
   29.2022   -2.1772   21.5352 C   0  0  0  0  0  0  0  0  0  0  0  0
   31.6238   -2.3469   21.3680 C   0  0  0  0  0  0  0  0  0  0  0  0
   31.6985   -1.1433   20.7357 C   0  0  0  0  0  0  0  0  0  0  0  0
   30.5405   -0.4579   20.5022 C   0  0  0  0  0  0  0  0  0  0  0  0
   29.3158   -0.9849   20.9047 C   0  0  0  0  0  0  0  0  0  0  0  0
   28.2085   -5.1432   23.1785 O   0  0  0  0  0  0  0  0  0  0  0  0
   26.1885   -0.6482   20.9542 N   0  0  0  0  0  0  0  0  0  0  0  0
   25.6108    0.5593   20.9895 O   0  0  0  0  0  0  0  0  0  0  0  0
  1  2  1  0
  1  3  2  0
  3  4  1  0
  3  5  1  0
  5  6  2  0
  6  7  1  0
  1  8  1  0
  7  8  2  0
  2  9  1  0
  4  9  1  0
  9 10  2  0
 10 11  1  0
 11 12  1  0
 12 13  1  0
 10 14  1  0
 13 14  2  0
 13 15  1  0
 15 16  2  0
 16 17  1  0
 14 18  1  0
 17 18  2  0
 11 19  2  0
  2 20  2  0
 20 21  1  0
M  END
$$$$
