1Q41_IXM_A_451
     RDKit          3D

 21 24  0  0  0  0  0  0  0  0999 V2000
   22.6256  -16.0389   11.2815 C   0  0  0  0  0  0  0  0  0  0  0  0
   21.6282  -16.2284   10.1912 C   0  0  0  0  0  0  0  0  0  0  0  0
   23.5751  -16.9955   11.0762 C   0  0  0  0  0  0  0  0  0  0  0  0
   23.2589  -17.7823    9.9356 N   0  0  0  0  0  0  0  0  0  0  0  0
   24.6367  -17.0361   11.9718 C   0  0  0  0  0  0  0  0  0  0  0  0
   24.7301  -16.1535   13.0198 C   0  0  0  0  0  0  0  0  0  0  0  0
   23.7665  -15.1884   13.2221 C   0  0  0  0  0  0  0  0  0  0  0  0
   22.7194  -15.1531   12.3334 C   0  0  0  0  0  0  0  0  0  0  0  0
   22.0208  -17.3241    9.3404 C   0  0  0  0  0  0  0  0  0  0  0  0
   21.5245  -17.8976    8.2738 C   0  0  0  0  0  0  0  0  0  0  0  0
   22.2210  -18.9646    7.5086 C   0  0  0  0  0  0  0  0  0  0  0  0
   21.4174  -19.3720    6.4113 N   0  0  0  0  0  0  0  0  0  0  0  0
   20.2372  -18.6040    6.4510 C   0  0  0  0  0  0  0  0  0  0  0  0
   20.2838  -17.7294    7.5431 C   0  0  0  0  0  0  0  0  0  0  0  0
   19.1593  -18.6455    5.5894 C   0  0  0  0  0  0  0  0  0  0  0  0
   18.0901  -17.8239    5.7774 C   0  0  0  0  0  0  0  0  0  0  0  0
   18.1105  -16.9609    6.8357 C   0  0  0  0  0  0  0  0  0  0  0  0
   19.2038  -16.9284    7.6980 C   0  0  0  0  0  0  0  0  0  0  0  0
   23.3434  -19.4877    7.7215 O   0  0  0  0  0  0  0  0  0  0  0  0
   20.6209  -15.4823   10.1151 N   0  0  0  0  0  0  0  0  0  0  0  0
   20.2056  -14.5059   10.9321 O   0  0  0  0  0  0  0  0  0  0  0  0
  1  2  1  0
  1  3  2  0
  3  4  1  0
  3  5  1  0
  5  6  2  0
  6  7  1  0
  1  8  1  0
  7  8  2  0
  2  9  1  0
  4  9  1  0
  9 10  2  0
 10 11  1  0
 11 12  1  0
 12 13  1  0
 10 14  1  0
 13 14  2  0
 13 15  1  0
 15 16  2  0
 16 17  1  0
 14 18  1  0
 17 18  2  0
 11 19  2  0
  2 20  2  0
 20 21  1  0
M  END
$$$$
