1Q41_IXM_A_451
     RDKit          3D

 21 24  0  0  0  0  0  0  0  0999 V2000
   32.0430   18.8577   25.3957 C   0  0  0  0  0  0  0  0  0  0  0  0
   30.9598   17.8402   25.4989 C   0  0  0  0  0  0  0  0  0  0  0  0
   31.4091   20.0414   25.1595 C   0  0  0  0  0  0  0  0  0  0  0  0
   30.0010   19.8562   25.1041 N   0  0  0  0  0  0  0  0  0  0  0  0
   32.2073   21.1702   25.0202 C   0  0  0  0  0  0  0  0  0  0  0  0
   33.5756   21.1019   25.1154 C   0  0  0  0  0  0  0  0  0  0  0  0
   34.2108   19.9018   25.3544 C   0  0  0  0  0  0  0  0  0  0  0  0
   33.4164   18.7894   25.4912 C   0  0  0  0  0  0  0  0  0  0  0  0
   29.6719   18.4621   25.3163 C   0  0  0  0  0  0  0  0  0  0  0  0
   28.4309   18.0463   25.3096 C   0  0  0  0  0  0  0  0  0  0  0  0
   27.2585   18.9450   25.1455 C   0  0  0  0  0  0  0  0  0  0  0  0
   26.0604   18.1842   25.1829 N   0  0  0  0  0  0  0  0  0  0  0  0
   26.4279   16.8365   25.3646 C   0  0  0  0  0  0  0  0  0  0  0  0
   27.8222   16.7373   25.4413 C   0  0  0  0  0  0  0  0  0  0  0  0
   25.6069   15.7309   25.4616 C   0  0  0  0  0  0  0  0  0  0  0  0
   26.1357   14.4886   25.6379 C   0  0  0  0  0  0  0  0  0  0  0  0
   27.4936   14.3644   25.7160 C   0  0  0  0  0  0  0  0  0  0  0  0
   28.3112   15.4874   25.6167 C   0  0  0  0  0  0  0  0  0  0  0  0
   27.2318   20.1919   24.9919 O   0  0  0  0  0  0  0  0  0  0  0  0
   31.2387   16.6353   25.7169 N   0  0  0  0  0  0  0  0  0  0  0  0
   32.1228   16.0931   26.5640 O   0  0  0  0  0  0  0  0  0  0  0  0
  1  2  1  0
  1  3  2  0
  3  4  1  0
  3  5  1  0
  5  6  2  0
  6  7  1  0
  1  8  1  0
  7  8  2  0
  2  9  1  0
  4  9  1  0
  9 10  2  0
 10 11  1  0
 11 12  1  0
 12 13  1  0
 10 14  1  0
 13 14  2  0
 13 15  1  0
 15 16  2  0
 16 17  1  0
 14 18  1  0
 17 18  2  0
 11 19  2  0
  2 20  2  0
 20 21  1  0
M  END
$$$$
