1Q41_IXM_A_451
     RDKit          3D

 21 24  0  0  0  0  0  0  0  0999 V2000
   15.6570    8.3836   20.0872 C   0  0  0  0  0  0  0  0  0  0  0  0
   15.2012    9.7658   20.4056 C   0  0  0  0  0  0  0  0  0  0  0  0
   14.5479    7.7286   19.6405 C   0  0  0  0  0  0  0  0  0  0  0  0
   13.4169    8.5894   19.6496 N   0  0  0  0  0  0  0  0  0  0  0  0
   14.7042    6.3983   19.2710 C   0  0  0  0  0  0  0  0  0  0  0  0
   15.9208    5.7661   19.3504 C   0  0  0  0  0  0  0  0  0  0  0  0
   17.0388    6.4340   19.8031 C   0  0  0  0  0  0  0  0  0  0  0  0
   16.8780    7.7490   20.1669 C   0  0  0  0  0  0  0  0  0  0  0  0
   13.7922    9.9020   20.1324 C   0  0  0  0  0  0  0  0  0  0  0  0
   12.9150   10.8683   20.2304 C   0  0  0  0  0  0  0  0  0  0  0  0
   11.4942   10.7410   19.8128 C   0  0  0  0  0  0  0  0  0  0  0  0
   10.8121   11.9635   20.0493 N   0  0  0  0  0  0  0  0  0  0  0  0
   11.7461   12.8621   20.6012 C   0  0  0  0  0  0  0  0  0  0  0  0
   12.9913   12.2325   20.7148 C   0  0  0  0  0  0  0  0  0  0  0  0
   11.5466   14.1704   20.9940 C   0  0  0  0  0  0  0  0  0  0  0  0
   12.5711   14.9019   21.5128 C   0  0  0  0  0  0  0  0  0  0  0  0
   13.7963   14.3111   21.6344 C   0  0  0  0  0  0  0  0  0  0  0  0
   13.9850   12.9904   21.2345 C   0  0  0  0  0  0  0  0  0  0  0  0
   10.8996    9.7503   19.3190 O   0  0  0  0  0  0  0  0  0  0  0  0
   16.0132   10.6168   20.8456 N   0  0  0  0  0  0  0  0  0  0  0  0
   17.3516   10.5954   20.8823 O   0  0  0  0  0  0  0  0  0  0  0  0
  1  2  1  0
  1  3  2  0
  3  4  1  0
  3  5  1  0
  5  6  2  0
  6  7  1  0
  1  8  1  0
  7  8  2  0
  2  9  1  0
  4  9  1  0
  9 10  2  0
 10 11  1  0
 11 12  1  0
 12 13  1  0
 10 14  1  0
 13 14  2  0
 13 15  1  0
 15 16  2  0
 16 17  1  0
 14 18  1  0
 17 18  2  0
 11 19  2  0
  2 20  2  0
 20 21  1  0
M  END
$$$$
