7Z2O_IAJ_A_701
     RDKit          3D

 21 23  0  0  0  0  0  0  0  0999 V2000
   -1.0768    4.7299    1.9553 C   0  0  0  0  0  0  0  0  0  0  0  0
    0.1393    4.0522    1.7768 C   0  0  0  0  0  0  0  0  0  0  0  0
    0.2389    2.7444    2.2398 C   0  0  0  0  0  0  0  0  0  0  0  0
    0.7015    0.4907    2.9332 C   0  0  0  0  0  0  0  0  0  0  0  0
   -1.0592   -0.2196    3.8366 C   0  0  0  0  0  0  0  0  0  0  0  0
   -0.8383    2.1120    2.8680 C   0  0  0  0  0  0  0  0  0  0  0  0
    0.9889   -0.7648    3.3088 N   0  0  0  0  0  0  0  0  0  0  0  0
   -0.1318   -1.2122    3.8820 N   0  0  0  0  0  0  0  0  0  0  0  0
   -2.1674    4.0982    2.5880 C   0  0  0  0  0  0  0  0  0  0  0  0
   -0.5268    0.8516    3.2368 N   0  0  0  0  0  0  0  0  0  0  0  0
   -4.3413    1.7504    3.0560 C   0  0  0  0  0  0  0  0  0  0  0  0
   -3.1162    2.0981    3.6916 O   0  0  0  0  0  0  0  0  0  0  0  0
   -2.0597    2.7671    3.0569 C   0  0  0  0  0  0  0  0  0  0  0  0
    1.5921    1.6939    2.1544 S   0  0  0  0  0  0  0  0  0  0  0  0
   -1.1781    5.7484    1.6032 H   0  0  0  0  0  0  0  0  0  0  0  0
    0.9771    4.5355    1.2916 H   0  0  0  0  0  0  0  0  0  0  0  0
   -2.0660   -0.2904    4.2252 H   0  0  0  0  0  0  0  0  0  0  0  0
   -3.0872    4.6544    2.7063 H   0  0  0  0  0  0  0  0  0  0  0  0
   -4.9942    1.2312    3.7871 H   0  0  0  0  0  0  0  0  0  0  0  0
   -4.8608    2.6658    2.7020 H   0  0  0  0  0  0  0  0  0  0  0  0
   -4.1478    1.0663    2.2028 H   0  0  0  0  0  0  0  0  0  0  0  0
  1  2  4  0
  2  3  4  0
  3  6  4  0
  4  7  4  0
  5  8  4  0
  7  8  4  0
  1  9  4  0
  5 10  4  0
  6 10  4  0
  4 10  4  0
 11 12  1  0
 12 13  1  0
  6 13  4  0
  9 13  4  0
  4 14  4  0
  3 14  4  0
  1 15  1  0
  2 16  1  0
  5 17  1  0
  9 18  1  0
 11 19  1  0
 11 20  1  0
 11 21  1  0
M  END
