7RWO_7WN_A_3001
     RDKit          3D

 20 22  0  0  0  0  0  0  0  0999 V2000
    4.0247    2.1831   -1.2335 N   0  0  0  0  0  0  0  0  0  0  0  0
    4.6328    2.0261   -2.5249 C   0  0  0  0  0  0  0  0  0  0  0  0
    6.0945    1.7024   -2.2969 C   0  0  0  0  0  0  0  0  0  0  0  0
    6.2068    0.6668   -1.2293 C   0  0  0  0  0  0  0  0  0  0  0  0
    7.4385    0.0777   -1.0651 C   0  0  0  0  0  0  0  0  0  0  0  0
    7.6157   -0.8844   -0.1015 C   0  0  0  0  0  0  0  0  0  0  0  0
    5.3749   -3.4007    3.3125 C   0  0  0  0  0  0  0  0  0  0  0  0
    6.0851   -1.6797    5.2549 C   0  0  0  0  0  0  0  0  0  0  0  0
    6.6411   -1.5592    4.0070 C   0  0  0  0  0  0  0  0  0  0  0  0
    6.2931   -2.4404    2.9684 C   0  0  0  0  0  0  0  0  0  0  0  0
    6.5761   -1.3017    0.7395 C   0  0  0  0  0  0  0  0  0  0  0  0
    5.3666   -0.6901    0.5439 C   0  0  0  0  0  0  0  0  0  0  0  0
    5.1615    0.2892   -0.4280 C   0  0  0  0  0  0  0  0  0  0  0  0
    3.7980    0.9113   -0.5776 C   0  0  0  0  0  0  0  0  0  0  0  0
    4.6535   -2.6998    6.8638 C   0  0  0  0  0  0  0  0  0  0  0  0
    6.8707   -2.2715    1.7058 N   0  0  0  0  0  0  0  0  0  0  0  0
    4.8538   -3.4790    4.5590 N   0  0  0  0  0  0  0  0  0  0  0  0
    5.1904   -2.6453    5.5204 N   0  0  0  0  0  0  0  0  0  0  0  0
    6.4341   -0.8542    6.1648 O   0  0  0  0  0  0  0  0  0  0  0  0
    7.8119   -0.2676    3.7231 Cl  0  0  0  0  0  0  0  0  0  0  0  0
  1  2  1  0
  2  3  1  0
  3  4  1  0
  4  5  1  0
  5  6  2  0
  8  9  1  0
  7 10  1  0
  9 10  2  0
  6 11  1  0
 11 12  2  0
  4 13  2  0
 12 13  1  0
  1 14  1  0
 13 14  1  0
 11 16  1  0
 10 16  1  0
  7 17  2  0
 17 18  1  0
  8 18  1  0
 15 18  1  0
  8 19  2  0
  9 20  1  0
M  END
$$$$
