
     RDKit          3D

 22 23  0  0  0  0  0  0  0  0999 V2000
   31.6568  -34.3140  -40.4476 O   0  0  0  0  0  0  0  0  0  0  0  0
   31.5878  -35.0980  -39.1833 P   0  0  0  0  0  5  0  0  0  0  0  0
   30.0949  -35.4770  -38.7661 O   0  0  0  0  0  0  0  0  0  0  0  0
   32.2578  -36.5433  -39.2260 O   0  0  0  0  0  0  0  0  0  0  0  0
   32.2170  -34.4161  -37.8867 O   0  0  0  0  0  0  0  0  0  0  0  0
   33.0110  -33.2580  -38.0351 C   0  0  0  0  0  0  0  0  0  0  0  0
   33.5817  -32.7779  -36.7266 C   0  0  0  0  0  0  0  0  0  0  0  0
   32.7660  -31.9177  -35.9784 C   0  0  0  0  0  0  0  0  0  0  0  0
   33.0730  -31.4161  -34.7677 N   0  0  0  0  0  0  0  0  0  0  0  0
   34.2891  -31.7169  -34.2687 C   0  0  0  0  0  0  0  0  0  0  0  0
   34.6447  -31.1081  -32.9441 C   0  0  0  0  0  0  0  0  0  0  0  0
   35.1952  -32.5257  -34.9585 C   0  0  0  0  0  0  0  0  0  0  0  0
   36.4401  -32.6855  -34.4048 O   0  0  0  0  0  0  0  0  0  0  0  0
   34.8413  -33.1322  -36.1878 C   0  0  0  0  0  0  0  0  0  0  0  0
   35.8636  -34.0441  -36.8440 C   0  0  2  0  0  0  0  0  0  0  0  0
   37.1073  -33.3467  -37.1685 N   0  0  0  0  0  0  0  0  0  0  0  0
   35.3734  -35.0852  -38.2213 S   0  0  0  0  0  0  0  0  0  0  0  0
   36.9767  -34.9163  -39.0299 C   0  0  0  0  0  0  0  0  0  0  0  0
   37.4187  -33.5219  -38.6094 C   0  0  2  0  0  0  0  0  0  0  0  0
   38.9080  -33.2941  -38.8565 C   0  0  0  0  0  0  0  0  0  0  0  0
   39.4347  -32.3137  -38.0952 O   0  0  0  0  0  0  0  0  0  0  0  0
   39.6343  -33.9469  -39.5907 O   0  0  0  0  0  0  0  0  0  0  0  0
  1  2  2  0
  2  3  1  0
  2  4  1  0
  2  5  1  0
  5  6  1  0
  6  7  1  0
  7  8  4  0
  8  9  4  0
  9 10  4  0
 10 11  1  0
 10 12  4  0
 12 13  1  0
  7 14  4  0
 12 14  4  0
 15 14  1  6
 15 16  1  0
 15 17  1  0
 17 18  1  0
 18 19  1  0
 16 19  1  0
 19 20  1  1
 20 21  1  0
 20 22  2  0
M  END
