
     RDKit          3D

 28 30  0  0  0  0  0  0  0  0999 V2000
   15.9772   -9.3880   17.9544 C   0  0  0  0  0  0  0  0  0  0  0  0
   16.4476  -10.4345   15.4042 C   0  0  0  0  0  0  0  0  0  0  0  0
   16.9868   -8.8320   17.1633 C   0  0  0  0  0  0  0  0  0  0  0  0
   15.2142  -10.4457   17.4629 C   0  0  0  0  0  0  0  0  0  0  0  0
   15.4400  -10.9767   16.1991 C   0  0  0  0  0  0  0  0  0  0  0  0
   17.2124   -9.3530   15.8742 C   0  0  0  0  0  0  0  0  0  0  0  0
   16.2806   -2.1874    9.1264 F   0  0  0  0  0  0  0  0  0  0  0  0
   14.2434  -10.9640   18.2268 F   0  0  0  0  0  0  0  0  0  0  0  0
   18.2382   -8.8009   14.9458 C   0  0  0  0  0  0  0  0  0  0  0  0
   18.2787   -6.0481   13.0740 C   0  0  0  0  0  0  0  0  0  0  0  0
   14.0531   -5.7250   11.2844 F   0  0  0  0  0  0  0  0  0  0  0  0
   17.8251   -7.8381   17.5931 O   0  0  0  0  0  0  0  0  0  0  0  0
   18.7999   -9.5365   14.1437 O   0  0  0  0  0  0  0  0  0  0  0  0
   19.2169   -6.7574   14.0000 C   0  0  0  0  0  0  0  0  0  0  0  0
   17.3363   -6.9215   18.5698 C   0  0  0  0  0  0  0  0  0  0  0  0
   18.6190   -5.0223   12.3184 N   0  0  0  0  0  0  0  0  0  0  0  0
   16.6475   -6.5716   12.9249 S   0  0  0  0  0  0  0  0  0  0  0  0
   18.5973   -2.7807   10.4257 F   0  0  0  0  0  0  0  0  0  0  0  0
   16.3512   -5.3283   11.7724 C   0  0  0  0  0  0  0  0  0  0  0  0
   16.3079   -3.2118    9.9892 C   0  0  0  0  0  0  0  0  0  0  0  0
   17.5241   -4.5919   11.5749 C   0  0  0  0  0  0  0  0  0  0  0  0
   15.1697   -5.0149   11.0853 C   0  0  0  0  0  0  0  0  0  0  0  0
   15.1540   -3.9504   10.1892 C   0  0  0  0  0  0  0  0  0  0  0  0
   17.4906   -3.5152   10.6629 C   0  0  0  0  0  0  0  0  0  0  0  0
   16.1082   -6.1364   18.1427 C   0  0  0  0  0  0  0  0  0  0  0  0
   15.2585   -5.8768   19.1645 O   0  0  0  0  0  0  0  0  0  0  0  0
   15.8590   -5.7783   16.9972 O   0  0  0  0  0  0  0  0  0  0  0  0
   18.4609   -7.4520   15.0167 N   0  0  0  0  0  0  0  0  0  0  0  0
  1  3  4  0
  1  4  4  0
  2  5  4  0
  4  5  4  0
  2  6  4  0
  3  6  4  0
  4  8  1  0
  6  9  1  0
  3 12  1  0
  9 13  2  0
 10 14  1  0
 12 15  1  0
 10 16  4  0
 10 17  4  0
 17 19  4  0
  7 20  1  0
 16 21  4  0
 19 21  4  0
 11 22  1  0
 19 22  4  0
 20 23  4  0
 22 23  4  0
 18 24  1  0
 20 24  4  0
 21 24  4  0
 15 25  1  0
 25 26  1  0
 25 27  2  0
  9 28  1  0
 14 28  1  0
M  END
