
     RDKit          3D

 35 38  0  0  0  0  0  0  0  0999 V2000
    6.8273   -2.1838   52.7487 C   0  0  1  0  0  0  0  0  0  0  0  0
    7.2904   -0.7643   52.3479 C   0  0  0  0  0  0  0  0  0  0  0  0
    7.8284   -0.5233   50.9511 C   0  0  0  0  0  0  0  0  0  0  0  0
    9.0810   -1.0611   50.6058 C   0  0  0  0  0  0  0  0  0  0  0  0
    9.6488   -0.8217   49.3521 C   0  0  0  0  0  0  0  0  0  0  0  0
    8.9623   -0.0445   48.4347 C   0  0  0  0  0  0  0  0  0  0  0  0
    7.7075    0.4586   48.7372 C   0  0  0  0  0  0  0  0  0  0  0  0
    7.1310    0.2076   49.9843 C   0  0  0  0  0  0  0  0  0  0  0  0
    5.7455   -2.2473   53.8388 C   0  0  0  0  0  0  0  0  0  0  0  0
    8.9555   -1.6394   56.5100 C   0  0  0  0  0  0  0  0  0  0  0  0
   10.3440   -2.0947   56.0483 C   0  0  2  0  0  0  0  0  0  0  0  0
   11.2367   -3.9824   57.1165 C   0  0  2  0  0  0  0  0  0  0  0  0
   10.3942   -4.4729   55.9330 C   0  0  1  0  0  0  0  0  0  0  0  0
   10.3371   -3.2455   55.0495 C   0  0  2  0  0  0  0  0  0  0  0  0
    9.6080   -4.5163   58.9760 C   0  0  0  0  0  0  0  0  0  0  0  0
   10.8452   -5.7168   60.2409 C   0  0  0  0  0  0  0  0  0  0  0  0
   11.4298   -6.5405   61.2142 C   0  0  0  0  0  0  0  0  0  0  0  0
   13.4157   -6.3885   60.0238 C   0  0  0  0  0  0  0  0  0  0  0  0
   11.6625   -5.3116   59.1992 C   0  0  0  0  0  0  0  0  0  0  0  0
    6.4365   -2.9881   51.5665 N   0  0  0  0  0  0  0  0  0  0  0  0
   10.8434   -4.5766   58.3812 N   0  0  0  0  0  0  0  0  0  0  0  0
    9.5696   -5.2071   60.0976 N   0  0  0  0  0  0  0  0  0  0  0  0
   10.7259   -7.0458   62.2987 N   0  0  0  0  0  0  0  0  0  0  0  0
   12.7379   -6.8636   61.0907 N   0  0  0  0  0  0  0  0  0  0  0  0
   12.9640   -5.6041   59.0190 N   0  0  0  0  0  0  0  0  0  0  0  0
    9.5010    0.2300   47.2133 O   0  0  0  0  0  0  0  0  0  0  0  0
    4.7190   -2.9081   53.7430 O   0  0  0  0  0  0  0  0  0  0  0  0
    6.0738   -1.5170   54.9128 O   0  0  0  0  0  0  0  0  0  0  0  0
    5.6474   -3.5399   56.2568 O   0  0  0  0  0  0  0  0  0  0  0  0
    6.0698   -1.3138   57.5261 O   0  0  0  0  0  0  0  0  0  0  0  0
    7.9549   -2.6312   56.2988 O   0  0  0  0  0  0  0  0  0  0  0  0
   11.0892   -2.5497   57.2018 O   0  0  0  0  0  0  0  0  0  0  0  0
   10.9816   -5.5718   55.2271 O   0  0  0  0  0  0  0  0  0  0  0  0
   11.5324   -3.1946   54.2514 O   0  0  0  0  0  0  0  0  0  0  0  0
    6.4278   -2.1358   56.3330 P   0  0  2  0  0  5  0  0  0  0  0  0
  1  2  1  0
  2  3  1  0
  3  4  4  0
  4  5  4  0
  5  6  4  0
  6  7  4  0
  7  8  4  0
  3  8  4  0
  1  9  1  0
 11 10  1  1
 12 13  1  0
 11 14  1  0
 13 14  1  0
 16 17  4  0
 16 19  4  0
  1 20  1  6
 12 21  1  1
 15 21  4  0
 19 21  4  0
 15 22  4  0
 16 22  4  0
 17 23  1  0
 18 24  4  0
 17 24  4  0
 19 25  4  0
 18 25  4  0
  6 26  1  0
  9 27  2  0
  9 28  1  0
 10 31  1  0
 11 32  1  0
 12 32  1  0
 13 33  1  6
 14 34  1  6
 35 28  1  0
 30 35  2  0
 35 29  1  1
 31 35  1  0
M  END
