7OPG_06N_B_501
     RDKit          3D

 33 35  0  0  0  0  0  0  0  0999 V2000
   49.6722   19.5492   80.8081 C   0  0  0  0  0  0  0  0  0  0  0  0
   49.3693   20.4534   79.7808 C   0  0  0  0  0  0  0  0  0  0  0  0
   49.5800   18.0698   80.7821 C   0  0  0  0  0  0  0  0  0  0  0  0
   48.7176   16.0305   79.7683 C   0  0  0  0  0  0  0  0  0  0  0  0
   48.8090   17.4253   79.7976 C   0  0  0  0  0  0  0  0  0  0  0  0
   49.3971   15.2604   80.7159 C   0  0  0  0  0  0  0  0  0  0  0  0
   50.1730   15.8920   81.6956 C   0  0  0  0  0  0  0  0  0  0  0  0
   50.2662   17.2867   81.7284 C   0  0  0  0  0  0  0  0  0  0  0  0
   49.5312   21.7418   80.2050 N   0  0  0  0  0  0  0  0  0  0  0  0
   49.9364   21.5652   81.4752 C   0  0  0  0  0  0  0  0  0  0  0  0
   50.0264   20.3109   81.8478 N   0  0  0  0  0  0  0  0  0  0  0  0
   50.2485   22.6326   82.7306 S   0  0  0  0  0  0  0  0  0  0  0  0
   50.4952   21.2732   83.7574 C   0  0  0  0  0  0  0  0  0  0  0  0
   50.3200   20.0828   83.1186 N   0  0  0  0  0  0  0  0  0  0  0  0
   50.8308   21.3794   85.1444 N   0  0  0  0  0  0  0  0  0  0  0  0
   51.9569   20.6596   85.7371 C   0  0  2  0  0  0  0  0  0  0  0  0
   51.8614   20.6378   87.2678 C   0  0  2  0  0  0  0  0  0  0  0  0
   51.1261   21.8604   87.8132 C   0  0  2  0  0  0  0  0  0  0  0  0
   49.2966   13.8716   80.6746 O   0  0  0  0  0  0  0  0  0  0  0  0
   49.0445   20.1934   78.7825 H   0  0  0  0  0  0  0  0  0  0  0  0
   48.1159   15.5475   79.0088 H   0  0  0  0  0  0  0  0  0  0  0  0
   48.2632   17.9971   79.0586 H   0  0  0  0  0  0  0  0  0  0  0  0
   50.7091   15.3031   82.4289 H   0  0  0  0  0  0  0  0  0  0  0  0
   50.8938   17.7432   82.4807 H   0  0  0  0  0  0  0  0  0  0  0  0
   50.2840   22.0382   85.7432 H   0  0  0  0  0  0  0  0  0  0  0  0
   52.9085   21.1493   85.4352 H   0  0  0  0  0  0  0  0  0  0  0  0
   51.9800   19.6184   85.3486 H   0  0  0  0  0  0  0  0  0  0  0  0
   52.8898   20.6229   87.6890 H   0  0  0  0  0  0  0  0  0  0  0  0
   51.3441   19.7154   87.6072 H   0  0  0  0  0  0  0  0  0  0  0  0
   51.7930   22.4469   88.4804 H   0  0  0  0  0  0  0  0  0  0  0  0
   50.2411   21.5306   88.3971 H   0  0  0  0  0  0  0  0  0  0  0  0
   50.7771   22.5077   86.9809 H   0  0  0  0  0  0  0  0  0  0  0  0
   49.9133   13.2798   81.2190 H   0  0  0  0  0  0  0  0  0  0  0  0
  1  2  2  0
  1  3  1  0
  4  5  2  0
  3  5  1  0
  4  6  1  0
  6  7  2  0
  7  8  1  0
  3  8  2  0
  2  9  1  0
  9 10  2  0
  1 11  1  0
 10 11  1  0
 10 12  1  0
 12 13  1  0
 11 14  1  0
 13 14  2  0
 13 15  1  0
 15 16  1  0
 16 17  1  0
 17 18  1  0
  6 19  1  0
  2 20  1  0
  4 21  1  0
  5 22  1  0
  7 23  1  0
  8 24  1  0
 15 25  1  0
 16 26  1  1
 16 27  1  0
 17 28  1  1
 17 29  1  0
 18 30  1  1
 18 31  1  0
 18 32  1  0
 19 33  1  0
M  END
