@<TRIPOS>MOLECULE
1Q4G_BFL_B_1701
 31 32 0 0 0
SMALL
GASTEIGER

@<TRIPOS>ATOM
      1 C          -0.2276   -0.7632   -1.2152 C.ar    1  UNL1       -0.0538
      2 C          -3.4425   -4.1363    0.9941 C.ar    1  UNL1       -0.0617
      3 C          -2.3570   -3.9072    1.8424 C.ar    1  UNL1       -0.0612
      4 C          -1.4460   -2.8857    1.5564 C.ar    1  UNL1       -0.0540
      5 C           2.1767    2.1844   -0.7762 C.3     1  UNL1        0.0784
      6 C           3.4262    1.6333   -1.4089 C.2     1  UNL1        0.3119
      7 C           1.5338    3.2691   -1.6488 C.3     1  UNL1       -0.0482
      8 C           0.6819    0.2577   -1.5034 C.ar    1  UNL1       -0.0572
      9 C           1.1944    1.0701   -0.4758 C.ar    1  UNL1       -0.0339
     10 C           0.7737    0.8398    0.8445 C.ar    1  UNL1       -0.0572
     11 C          -0.1351   -0.1820    1.1329 C.ar    1  UNL1       -0.0538
     12 C          -0.6462   -0.9952    0.1065 C.ar    1  UNL1       -0.0179
     13 C          -1.6126   -2.0808    0.4133 C.ar    1  UNL1       -0.0179
     14 C          -2.7108   -2.3223   -0.4342 C.ar    1  UNL1       -0.0540
     15 C          -3.6192   -3.3446   -0.1427 C.ar    1  UNL1       -0.0612
     16 O           3.4968    1.4396   -2.7863 O.3     1  UNL1       -0.4802
     17 O           4.4012    1.3026   -0.6820 O.2     1  UNL1       -0.2503
     18 H          -0.5901   -1.3831   -2.0255 H       1  UNL1        0.0624
     19 H          -4.1466   -4.9273    1.2176 H       1  UNL1        0.0618
     20 H          -2.2190   -4.5239    2.7212 H       1  UNL1        0.0618
     21 H          -0.6025   -2.7371    2.2188 H       1  UNL1        0.0624
     22 H           2.4768    2.6812    0.1741 H       1  UNL1        0.0459
     23 H           2.2555    4.0966   -1.8193 H       1  UNL1        0.0241
     24 H           1.2201    2.8630   -2.6339 H       1  UNL1        0.0241
     25 H           0.6409    3.6868   -1.1364 H       1  UNL1        0.0241
     26 H           0.9884    0.4105   -2.5301 H       1  UNL1        0.0621
     27 H           1.1458    1.4537    1.6553 H       1  UNL1        0.0621
     28 H          -0.4524   -0.3237    2.1584 H       1  UNL1        0.0624
     29 H          -2.8770   -1.7100   -1.3116 H       1  UNL1        0.0624
     30 H          -4.4629   -3.5207   -0.7974 H       1  UNL1        0.0618
     31 H           4.3286    1.0515   -3.2146 H       1  UNL1        0.2951
@<TRIPOS>BOND
     1     2     3   ar
     2     3     4   ar
     3     5     6    1
     4     5     7    1
     5     1     8   ar
     6     5     9    1
     7     8     9   ar
     8     9    10   ar
     9    10    11   ar
    10     1    12   ar
    11    11    12   ar
    12     4    13   ar
    13    12    13    1
    14    13    14   ar
    15     2    15   ar
    16    14    15   ar
    17     6    16    1
    18     6    17    2
    19     1    18    1
    20     2    19    1
    21     3    20    1
    22     4    21    1
    23     5    22    1
    24     7    23    1
    25     7    24    1
    26     7    25    1
    27     8    26    1
    28    10    27    1
    29    11    28    1
    30    14    29    1
    31    15    30    1
    32    16    31    1
