@<TRIPOS>MOLECULE
1Q4G_BFL_B_1701
 31 32 0 0 0
SMALL
GASTEIGER

@<TRIPOS>ATOM
      1 C          68.9350   22.1920  190.6920 C.ar    1  UNL1       -0.0538
      2 C          68.2400   25.9030  187.0300 C.ar    1  UNL1       -0.0617
      3 C          67.3810   24.7990  186.7850 C.ar    1  UNL1       -0.0612
      4 C          67.2340   23.7680  187.7660 C.ar    1  UNL1       -0.0540
      5 C          67.5220   19.7020  193.2190 C.3     1  UNL1        0.0784
      6 C          67.3680   20.4630  194.5350 C.2     1  UNL1        0.3119
      7 C          66.4530   18.6280  192.9680 C.3     1  UNL1       -0.0482
      8 C          68.8390   21.2130  191.6910 C.ar    1  UNL1       -0.0572
      9 C          67.5640   20.7790  192.0990 C.ar    1  UNL1       -0.0339
     10 C          66.3870   21.3340  191.4880 C.ar    1  UNL1       -0.0572
     11 C          66.4890   22.3310  190.4710 C.ar    1  UNL1       -0.0538
     12 C          67.8030   22.7880  190.0480 C.ar    1  UNL1       -0.0179
     13 C          67.9560   23.8520  188.9940 C.ar    1  UNL1       -0.0179
     14 C          68.8390   24.9870  189.2370 C.ar    1  UNL1       -0.0540
     15 C          68.9600   25.9970  188.2330 C.ar    1  UNL1       -0.0612
     16 O          66.3390   20.9560  194.9100 O.3     1  UNL1       -0.4802
     17 O          68.4620   20.5310  195.2230 O.2     1  UNL1       -0.2503
     18 H          69.8764   22.5013  190.4038 H       1  UNL1        0.0624
     19 H          68.3364   26.6434  186.3176 H       1  UNL1        0.0618
     20 H          66.8607   24.7402  185.8957 H       1  UNL1        0.0618
     21 H          66.6085   22.9670  187.5863 H       1  UNL1        0.0624
     22 H          68.4234   19.1262  193.2456 H       1  UNL1        0.0459
     23 H          65.4886   19.0890  192.9202 H       1  UNL1        0.0241
     24 H          66.4687   17.9157  193.7663 H       1  UNL1        0.0241
     25 H          66.6570   18.1311  192.0426 H       1  UNL1        0.0241
     26 H          69.6898   20.8169  192.1203 H       1  UNL1        0.0621
     27 H          65.4554   21.0073  191.7886 H       1  UNL1        0.0621
     28 H          65.6376   22.7238  190.0399 H       1  UNL1        0.0624
     29 H          69.3681   25.0597  190.1200 H       1  UNL1        0.0624
     30 H          69.5829   26.8040  188.3933 H       1  UNL1        0.0618
     31 H          65.5668   20.8859  194.3839 H       1  UNL1        0.2951
@<TRIPOS>BOND
     1     2     3   ar
     2     3     4   ar
     3     5     6    1
     4     5     7    1
     5     1     8   ar
     6     5     9    1
     7     8     9   ar
     8     9    10   ar
     9    10    11   ar
    10     1    12   ar
    11    11    12   ar
    12     4    13   ar
    13    12    13    1
    14    13    14   ar
    15     2    15   ar
    16    14    15   ar
    17     6    16    1
    18     6    17    2
    19     1    18    1
    20     2    19    1
    21     3    20    1
    22     4    21    1
    23     5    22    1
    24     7    23    1
    25     7    24    1
    26     7    25    1
    27     8    26    1
    28    10    27    1
    29    11    28    1
    30    14    29    1
    31    15    30    1
    32    16    31    1
