7BJ6_TVK_A_207
     RDKit          3D

 37 41  0  0  0  0  0  0  0  0999 V2000
  -24.4327   -4.8402   15.1511 C   0  0  0  0  0  0  0  0  0  0  0  0
  -25.7945   -5.3472   15.6099 C   0  0  1  0  0  0  0  0  0  0  0  0
  -24.8899   -8.8467   14.7712 C   0  0  1  0  0  0  0  0  0  0  0  0
  -22.7329   -9.2230   16.0999 C   0  0  0  0  0  0  0  0  0  0  0  0
  -21.9672  -11.6304   16.0494 C   0  0  0  0  0  0  0  0  0  0  0  0
  -21.0233  -12.5757   15.7051 C   0  0  0  0  0  0  0  0  0  0  0  0
  -19.8288  -12.1605   15.1550 C   0  0  0  0  0  0  0  0  0  0  0  0
  -19.6337  -10.8020   14.9061 C   0  0  0  0  0  0  0  0  0  0  0  0
  -24.8490  -10.4621   16.4839 C   0  0  0  0  0  0  0  0  0  0  0  0
  -24.4393  -11.1308   17.4194 O   0  0  0  0  0  0  0  0  0  0  0  0
  -27.2540  -11.3235   16.1162 C   0  0  0  0  0  0  0  0  0  0  0  0
  -28.4893  -10.2414   14.3789 C   0  0  0  0  0  0  0  0  0  0  0  0
  -27.4210   -9.4211   14.1406 C   0  0  0  0  0  0  0  0  0  0  0  0
  -26.2367   -9.5219   14.8821 C   0  0  0  0  0  0  0  0  0  0  0  0
  -29.5995  -12.1776   15.6087 C   0  0  1  0  0  0  0  0  0  0  0  0
  -30.8700  -11.5188   16.1437 C   0  0  0  0  0  0  0  0  0  0  0  0
  -29.9131  -12.9468   14.3257 C   0  0  0  0  0  0  0  0  0  0  0  0
  -24.1903  -10.7483   11.5052 C   0  0  0  0  0  0  0  0  0  0  0  0
  -23.3983   -8.3846   12.7212 C   0  0  0  0  0  0  0  0  0  0  0  0
  -26.5545   -4.5744   16.6393 C   0  0  0  0  0  0  0  0  0  0  0  0
  -27.0172   -4.5925   15.2175 C   0  0  0  0  0  0  0  0  0  0  0  0
  -23.4842   -4.7930   16.2039 O   0  0  0  0  0  0  0  0  0  0  0  0
  -25.8569   -6.8661   15.6813 C   0  0  0  0  0  0  0  0  0  0  0  0
  -24.8577   -7.4306   14.7874 O   0  0  0  0  0  0  0  0  0  0  0  0
  -24.1289   -9.5264   15.7993 N   0  0  0  0  0  0  0  0  0  0  0  0
  -21.7132  -10.2923   15.7809 C   0  0  0  0  0  0  0  0  0  0  0  0
  -18.6374  -13.3695   14.7219 Cl  0  0  0  0  0  0  0  0  0  0  0  0
  -20.5544   -9.8715   15.2327 N   0  0  0  0  0  0  0  0  0  0  0  0
  -26.1809  -10.4894   15.8660 C   0  0  0  0  0  0  0  0  0  0  0  0
  -28.4372  -11.2146   15.3762 C   0  0  0  0  0  0  0  0  0  0  0  0
  -27.5037   -8.4806   13.1819 F   0  0  0  0  0  0  0  0  0  0  0  0
  -29.0780  -13.1622   16.5243 O   0  0  0  0  0  0  0  0  0  0  0  0
  -24.2873   -9.2232   13.3978 C   0  0  0  0  0  0  0  0  0  0  0  0
  -24.6913  -10.3963   12.7528 C   0  0  0  0  0  0  0  0  0  0  0  0
  -23.3116   -9.9081   10.8770 C   0  0  0  0  0  0  0  0  0  0  0  0
  -22.7466  -10.3161    9.2592 Cl  0  0  0  0  0  0  0  0  0  0  0  0
  -22.9020   -8.7263   11.4667 C   0  0  0  0  0  0  0  0  0  0  0  0
  2  1  1  6
  5  6  2  0
  6  7  1  0
  7  8  2  0
  9 10  2  0
 12 13  1  0
 13 14  2  0
  3 14  1  0
 15 16  1  1
 15 17  1  0
  2 20  1  0
  2 21  1  0
 20 21  1  0
  1 22  1  0
  2 23  1  0
  3 24  1  1
 23 24  1  0
  3 25  1  0
  9 25  1  0
  4 25  1  0
  5 26  1  0
  4 26  1  0
  7 27  1  0
  8 28  1  0
 26 28  2  0
 14 29  1  0
 11 29  2  0
  9 29  1  0
 12 30  2  0
 15 30  1  0
 11 30  1  0
 13 31  1  0
 15 32  1  0
 19 33  2  0
  3 33  1  0
 18 34  2  0
 33 34  1  0
 18 35  1  0
 35 36  1  0
 35 37  2  0
 19 37  1  0
M  END
