7BLA_WCS_A_1901
     RDKit          3D

 32 34  0  0  0  0  0  0  0  0999 V2000
   -9.2911    4.5936    0.8840 C   0  0  0  0  0  0  0  0  0  0  0  0
   -8.1006    4.3622    0.1236 C   0  0  0  0  0  0  0  0  0  0  0  0
   -6.7769    4.8628   -1.6832 C   0  0  0  0  0  0  0  0  0  0  0  0
   -7.7611    7.0833   -3.1140 C   0  0  0  0  0  0  0  0  0  0  0  0
   -6.5392    5.0805   -4.2903 O   0  0  0  0  0  0  0  0  0  0  0  0
   -5.1538    6.5604   -2.9572 O   0  0  0  0  0  0  0  0  0  0  0  0
   -6.1289    3.1150   -0.4332 C   0  0  0  0  0  0  0  0  0  0  0  0
  -15.0819    3.0835    6.6230 C   0  0  0  0  0  0  0  0  0  0  0  0
  -14.1925    4.6554    5.0446 C   0  0  0  0  0  0  0  0  0  0  0  0
  -13.8436    6.1248    4.8461 C   0  0  0  0  0  0  0  0  0  0  0  0
  -13.2531    6.3407    3.4549 C   0  0  0  0  0  0  0  0  0  0  0  0
  -11.7269    4.9620    2.2287 C   0  0  0  0  0  0  0  0  0  0  0  0
  -10.7849    4.0790    2.7176 C   0  0  0  0  0  0  0  0  0  0  0  0
   -9.5923    3.8871    2.0471 C   0  0  0  0  0  0  0  0  0  0  0  0
   -5.3167    1.0992    0.7953 C   0  0  0  0  0  0  0  0  0  0  0  0
   -6.6913    1.0668    1.4504 C   0  0  0  0  0  0  0  0  0  0  0  0
   -6.5975    0.7135    2.9323 C   0  0  0  0  0  0  0  0  0  0  0  0
   -8.6768    1.6916    3.7622 C   0  0  0  0  0  0  0  0  0  0  0  0
   -9.0274    2.7785    4.5198 C   0  0  0  0  0  0  0  0  0  0  0  0
   -7.8602    3.4188    4.8837 C   0  0  0  0  0  0  0  0  0  0  0  0
   -7.2302    3.2975    0.4014 C   0  0  0  0  0  0  0  0  0  0  0  0
  -10.2626    5.4810    0.4135 C   0  0  0  0  0  0  0  0  0  0  0  0
  -11.4647    5.6718    1.0778 C   0  0  0  0  0  0  0  0  0  0  0  0
  -14.6811    5.3348    7.2929 C   0  0  0  0  0  0  0  0  0  0  0  0
  -14.2135    4.2469    6.4462 N   0  0  0  0  0  0  0  0  0  0  0  0
   -7.8540    5.1346   -0.9498 N   0  0  0  0  0  0  0  0  0  0  0  0
   -5.9199    3.8820   -1.4800 N   0  0  0  0  0  0  0  0  0  0  0  0
   -5.1791    2.0934   -0.2485 N   0  0  0  0  0  0  0  0  0  0  0  0
   -7.3569    1.6941    3.6862 N   0  0  0  0  0  0  0  0  0  0  0  0
   -6.8436    2.7462    4.3779 N   0  0  0  0  0  0  0  0  0  0  0  0
  -12.9095    5.0840    2.9433 O   0  0  0  0  0  0  0  0  0  0  0  0
   -6.4589    5.9021   -3.1179 S   0  0  2  0  0  0  0  0  0  0  0  0
  1  2  1  0
  9 10  1  0
 10 11  1  0
 12 13  2  0
 13 14  1  0
  1 14  2  0
 15 16  1  0
 16 17  1  0
 18 19  2  0
 19 20  1  0
  2 21  2  0
  7 21  1  0
  1 22  1  0
 12 23  1  0
 22 23  2  0
 24 25  1  0
  8 25  1  0
  9 25  1  0
  2 26  1  0
  3 26  2  0
  7 27  2  0
  3 27  1  0
 15 28  1  0
  7 28  1  0
 17 29  1  0
 18 29  1  0
 20 30  2  0
 29 30  1  0
 11 31  1  0
 12 31  1  0
  3 32  1  0
 32  4  1  6
  6 32  2  0
  5 32  2  0
M  END
