7D9L_GSF_A_305
     RDKit          3D

 22 21  0  0  0  0  0  0  0  0999 V2000
    9.5410   21.0881    6.2614 C   0  0  0  0  0  0  0  0  0  0  0  0
    8.5111   22.1746    6.0915 C   0  0  0  0  0  0  0  0  0  0  0  0
    8.9739   23.2912    6.9748 C   0  0  0  0  0  0  0  0  0  0  0  0
   10.0909   23.7906    6.6797 O   0  0  0  0  0  0  0  0  0  0  0  0
   10.4276   18.9340    5.5189 C   0  0  0  0  0  0  0  0  0  0  0  0
   11.7197   19.3460    5.2887 O   0  0  0  0  0  0  0  0  0  0  0  0
   10.2428   17.7313    5.8310 O   0  0  0  0  0  0  0  0  0  0  0  0
    8.0625   19.2133    5.6615 N   0  0  0  0  0  0  0  0  0  0  0  0
    9.2975   19.8815    5.4010 C   0  0  1  0  0  0  0  0  0  0  0  0
    8.1635   23.7091    8.0516 N   0  0  0  0  0  0  0  0  0  0  0  0
    8.4519   24.7138    9.0065 C   0  0  1  0  0  0  0  0  0  0  0  0
    7.3953   25.7445    9.2812 C   0  0  0  0  0  0  0  0  0  0  0  0
    7.0133   26.7308    7.8478 S   0  0  0  0  0  0  0  0  0  0  0  0
    7.0384   28.2115    8.1710 O   0  0  0  0  0  0  0  0  0  0  0  0
    5.7446   26.2639    6.8986 O   0  0  0  0  0  0  0  0  0  0  0  0
    9.0047   24.1397   10.2267 C   0  0  0  0  0  0  0  0  0  0  0  0
    8.5740   23.0479   10.6614 O   0  0  0  0  0  0  0  0  0  0  0  0
   10.0422   24.7856   10.9656 N   0  0  0  0  0  0  0  0  0  0  0  0
   10.5238   24.1838   12.2039 C   0  0  0  0  0  0  0  0  0  0  0  0
   11.5294   25.0704   12.8325 C   0  0  0  0  0  0  0  0  0  0  0  0
   12.1762   26.0747   12.0996 O   0  0  0  0  0  0  0  0  0  0  0  0
   11.8531   24.9700   14.0456 O   0  0  0  0  0  0  0  0  0  0  0  0
  1  2  1  0
  2  3  1  0
  3  4  2  0
  5  6  1  0
  5  7  2  0
  1  9  1  0
  5  9  1  0
  9  8  1  1
  3 10  1  0
 10 11  1  0
 11 12  1  1
 12 13  1  0
 13 14  2  0
 13 15  1  1
 11 16  1  0
 16 17  2  0
 16 18  1  0
 18 19  1  0
 19 20  1  0
 20 21  1  0
 20 22  2  0
M  END
$$$$
