
     RDKit          3D

 36 38  0  0  0  0  0  0  0  0999 V2000
  -16.8981  -24.8557  -29.0862 N   0  0  0  0  0  0  0  0  0  0  0  0
  -16.3238  -25.3287  -30.2614 C   0  0  0  0  0  0  0  0  0  0  0  0
  -15.5265  -24.4381  -30.9324 N   0  0  0  0  0  0  0  0  0  0  0  0
  -15.2758  -23.1484  -30.5659 C   0  0  0  0  0  0  0  0  0  0  0  0
  -15.8935  -22.7125  -29.3052 C   0  0  0  0  0  0  0  0  0  0  0  0
  -16.6581  -23.5733  -28.6300 C   0  0  0  0  0  0  0  0  0  0  0  0
  -16.5064  -26.4551  -30.7185 O   0  0  0  0  0  0  0  0  0  0  0  0
  -14.5818  -22.3871  -31.2288 O   0  0  0  0  0  0  0  0  0  0  0  0
  -17.6949  -25.7997  -28.3116 C   0  0  1  0  0  0  0  0  0  0  0  0
  -17.1376  -26.0656  -26.9060 C   0  0  2  0  0  0  0  0  0  0  0  0
  -16.0698  -27.0011  -26.8506 O   0  0  0  0  0  0  0  0  0  0  0  0
  -18.3823  -26.5907  -26.2128 C   0  0  1  0  0  0  0  0  0  0  0  0
  -19.4805  -25.7008  -26.7966 C   0  0  2  0  0  0  0  0  0  0  0  0
  -19.0346  -25.2922  -28.1211 O   0  0  0  0  0  0  0  0  0  0  0  0
  -18.5707  -27.9583  -26.6173 O   0  0  0  0  0  0  0  0  0  0  0  0
  -19.7263  -24.4513  -25.9457 C   0  0  0  0  0  0  0  0  0  0  0  0
  -19.1427  -23.3351  -26.5977 O   0  0  0  0  0  0  0  0  0  0  0  0
  -19.5282  -21.8719  -26.0723 P   0  0  1  0  0  5  0  0  0  0  0  0
  -18.3868  -20.9401  -25.8516 O   0  0  0  0  0  0  0  0  0  0  0  0
  -20.4975  -21.3472  -27.2392 O   0  0  0  0  0  0  0  0  0  0  0  0
  -20.5307  -22.1171  -24.8720 O   0  0  0  0  0  0  0  0  0  0  0  0
  -20.2775  -21.5782  -23.3983 P   0  0  1  0  0  5  0  0  0  0  0  0
  -21.2027  -22.0812  -22.3433 O   0  0  0  0  0  0  0  0  0  0  0  0
  -18.7498  -21.9972  -23.1430 O   0  0  0  0  0  0  0  0  0  0  0  0
  -20.2062  -19.9858  -23.5478 O   0  0  0  0  0  0  0  0  0  0  0  0
  -21.2204  -19.1990  -22.9541 C   0  0  2  0  0  0  0  0  0  0  0  0
  -20.9365  -17.6930  -23.2050 C   0  0  1  0  0  0  0  0  0  0  0  0
  -20.2584  -17.0941  -21.9761 C   0  0  2  0  0  0  0  0  0  0  0  0
  -21.1707  -17.2109  -20.7456 C   0  0  1  0  0  0  0  0  0  0  0  0
  -21.8765  -18.5815  -20.6996 C   0  0  1  0  0  0  0  0  0  0  0  0
  -23.3781  -18.4759  -21.0225 C   0  0  0  0  0  0  0  0  0  0  0  0
  -20.1430  -17.4414  -24.3850 O   0  0  0  0  0  0  0  0  0  0  0  0
  -19.9616  -15.7118  -22.2364 O   0  0  0  0  0  0  0  0  0  0  0  0
  -20.3327  -17.0027  -19.5971 O   0  0  0  0  0  0  0  0  0  0  0  0
  -21.2226  -19.5229  -21.5575 O   0  0  0  0  0  0  0  0  0  0  0  0
  -24.0441  -19.7227  -20.8635 O   0  0  0  0  0  0  0  0  0  0  0  0
  1  2  4  0
  2  3  4  0
  3  4  4  0
  4  5  4  0
  1  6  4  0
  5  6  4  0
  2  7  2  0
  4  8  2  0
  9  1  1  1
  9 10  1  0
 10 11  1  6
 10 12  1  0
 12 13  1  0
  9 14  1  0
 13 14  1  0
 12 15  1  6
 13 16  1  1
 16 17  1  0
 18 17  1  0
 18 19  2  0
 18 20  1  6
 18 21  1  0
 22 21  1  0
 22 23  2  0
 22 24  1  1
 22 25  1  0
 26 25  1  6
 26 27  1  0
 27 28  1  0
 28 29  1  0
 29 30  1  0
 30 31  1  6
 27 32  1  6
 28 33  1  6
 29 34  1  1
 26 35  1  0
 30 35  1  0
 31 36  1  0
M  END
