1HNN_SKF_A_3001
     RDKit          3D

 14 15  0  0  0  0  0  0  0  0999 V2000
    3.9816   43.5871   19.9377 C   0  0  0  0  0  0  0  0  0  0  0  0
    3.8004   43.5062   18.5903 C   0  0  0  0  0  0  0  0  0  0  0  0
    4.6892   42.8387   17.8018 C   0  0  0  0  0  0  0  0  0  0  0  0
    5.7822   42.2446   18.4074 C   0  0  0  0  0  0  0  0  0  0  0  0
    4.4504   42.7358   16.0529 S   0  0  1  0  0  6  0  0  0  0  0  0
    5.9696   42.3232   19.7648 C   0  0  0  0  0  0  0  0  0  0  0  0
    5.0567   43.0045   20.5454 C   0  0  0  0  0  0  0  0  0  0  0  0
    3.0459   42.1827   15.8602 O   0  0  0  0  0  0  0  0  0  0  0  0
    4.5294   44.1105   15.4729 O   0  0  0  0  0  0  0  0  0  0  0  0
    5.5907   41.6482   15.3680 N   0  0  0  0  0  0  0  0  0  0  0  0
    7.1645   41.6605   20.3358 C   0  0  0  0  0  0  0  0  0  0  0  0
    6.8217   43.1800   22.1430 C   0  0  0  0  0  0  0  0  0  0  0  0
    5.2981   43.0653   22.0129 C   0  0  0  0  0  0  0  0  0  0  0  0
    7.3295   41.8825   21.7414 N   0  0  0  0  0  0  0  0  0  0  0  0
  1  2  2  0
  2  3  1  0
  3  4  2  0
  3  5  1  0
  4  6  1  0
  1  7  1  0
  6  7  2  0
  5  8  2  0
  5  9  2  0
  5 10  1  6
  6 11  1  0
 13  7  1  6
 12 13  1  0
 11 14  1  1
 12 14  1  1
M  END
$$$$
