7F51_BA7_A_402
     RDKit          3D

 71 75  0  0  0  0  0  0  0  0999 V2000
    3.6071    5.4284   -1.2427 C   0  0  0  0  0  0  0  0  0  0  0  0
   -0.4903    2.1252    2.1371 C   0  0  1  0  0  0  0  0  0  0  0  0
    2.2857    5.0362   -3.2509 C   0  0  0  0  0  0  0  0  0  0  0  0
    3.5069    4.9736   -2.5709 C   0  0  0  0  0  0  0  0  0  0  0  0
    2.7714    4.0326    1.1257 C   0  0  1  0  0  0  0  0  0  0  0  0
   -2.5260    5.8367    0.7233 C   0  0  0  0  0  0  0  0  0  0  0  0
   -1.3138    0.8641    1.9109 C   0  0  2  0  0  0  0  0  0  0  0  0
    4.2018    4.2001    1.5820 C   0  0  2  0  0  0  0  0  0  0  0  0
    2.4643    5.9585   -0.6150 C   0  0  0  0  0  0  0  0  0  0  0  0
   -1.9524    0.6449    3.2605 C   0  0  2  0  0  0  0  0  0  0  0  0
    4.1267    5.4346    2.4550 C   0  0  2  0  0  0  0  0  0  0  0  0
   -1.0659    4.0243    0.5550 C   0  0  0  0  0  0  0  0  0  0  0  0
   -2.0264    2.0653    3.8346 C   0  0  2  0  0  0  0  0  0  0  0  0
    2.6420    5.4790    2.8566 C   0  0  2  0  0  0  0  0  0  0  0  0
   -0.6710    4.4167   -0.6777 C   0  0  0  0  0  0  0  0  0  0  0  0
   -3.4261    2.6676    3.6624 C   0  0  0  0  0  0  0  0  0  0  0  0
    2.4440    5.3331    4.3697 C   0  0  0  0  0  0  0  0  0  0  0  0
   -1.2130    5.5617   -1.2502 C   0  0  0  0  0  0  0  0  0  0  0  0
    4.8909    5.3474   -0.5130 C   0  0  0  0  0  0  0  0  0  0  0  0
    1.2486    6.0266   -1.3033 C   0  0  0  0  0  0  0  0  0  0  0  0
    0.3922    2.6627   -0.1655 C   0  0  0  0  0  0  0  0  0  0  0  0
    1.1583    5.5636   -2.6182 C   0  0  0  0  0  0  0  0  0  0  0  0
   -2.1402    6.2539   -0.5242 N   0  0  0  0  0  0  0  0  0  0  0  0
   -1.9870    4.7080    1.2755 N   0  0  0  0  0  0  0  0  0  0  0  0
   -0.8230    6.0121   -2.5465 N   0  0  0  0  0  0  0  0  0  0  0  0
    0.2534    3.5726   -1.1687 N   0  0  0  0  0  0  0  0  0  0  0  0
   -0.3990    2.9175    0.9084 N   0  0  0  0  0  4  0  0  0  0  0  0
   -1.3362    4.4081    1.2349 O   0  0  0  0  0  0  0  0  0  0  0  0
    1.7601    2.5469    2.6373 O   0  0  0  0  0  0  0  0  0  0  0  0
    2.5207    2.6879    0.8241 O   0  0  0  0  0  0  0  0  0  0  0  0
   -0.5116   -0.2248    1.5350 O   0  0  0  0  0  0  0  0  0  0  0  0
   -1.5213    5.7758    3.4418 O   0  0  0  0  0  0  0  0  0  0  0  0
    0.9689    4.9527    2.0421 O   0  0  0  0  0  0  0  0  0  0  0  0
    5.0750    4.3599    0.4637 O   0  0  0  0  0  0  0  0  0  0  0  0
   -1.1790   -0.1983    4.0841 O   0  0  0  0  0  0  0  0  0  0  0  0
   -0.6648    3.1494    3.4136 O   0  0  0  0  0  0  0  0  0  0  0  0
    4.4510    6.5940    1.7264 O   0  0  0  0  0  0  0  0  0  0  0  0
   -1.0794    2.8818    3.1745 O   0  0  0  0  0  0  0  0  0  0  0  0
    1.9455    4.4519    2.1822 O   0  0  0  0  0  0  0  0  0  0  0  0
   -3.3515    3.7718    2.7938 O   0  0  0  0  0  0  0  0  0  0  0  0
    1.5994    4.2387    4.6455 O   0  0  0  0  0  0  0  0  0  0  0  0
    5.8202    6.1614   -0.7735 O   0  0  0  0  0  0  0  0  0  0  0  0
   -1.7220    4.2724    2.6891 P   0  0  2  0  0  5  0  0  0  0  0  0
    0.9307    3.6930    3.1738 P   0  0  1  0  0  5  0  0  0  0  0  0
    0.5382    1.8489    2.4619 H   0  0  0  0  0  0  0  0  0  0  0  0
    2.2140    4.6690   -4.2681 H   0  0  0  0  0  0  0  0  0  0  0  0
    4.3676    4.5577   -3.0805 H   0  0  0  0  0  0  0  0  0  0  0  0
    2.5771    4.6715    0.2309 H   0  0  0  0  0  0  0  0  0  0  0  0
   -3.2579    6.4079    1.2750 H   0  0  0  0  0  0  0  0  0  0  0  0
   -2.1126    1.0468    1.1529 H   0  0  0  0  0  0  0  0  0  0  0  0
    4.4993    3.3168    2.1944 H   0  0  0  0  0  0  0  0  0  0  0  0
    2.5070    6.3142    0.4062 H   0  0  0  0  0  0  0  0  0  0  0  0
   -2.9577    0.1841    3.1393 H   0  0  0  0  0  0  0  0  0  0  0  0
    4.8026    5.3275    3.3376 H   0  0  0  0  0  0  0  0  0  0  0  0
   -1.7900    2.0519    4.9228 H   0  0  0  0  0  0  0  0  0  0  0  0
    2.1952    6.4540    2.5544 H   0  0  0  0  0  0  0  0  0  0  0  0
   -4.1056    1.8893    3.2453 H   0  0  0  0  0  0  0  0  0  0  0  0
   -3.7912    2.9819    4.6662 H   0  0  0  0  0  0  0  0  0  0  0  0
    1.9944    6.2772    4.7504 H   0  0  0  0  0  0  0  0  0  0  0  0
    3.4473    5.1975    4.8351 H   0  0  0  0  0  0  0  0  0  0  0  0
    0.3749    6.4402   -0.8160 H   0  0  0  0  0  0  0  0  0  0  0  0
    1.0745    1.8223   -0.2208 H   0  0  0  0  0  0  0  0  0  0  0  0
    0.2147    5.6152   -3.1467 H   0  0  0  0  0  0  0  0  0  0  0  0
   -1.2391    6.8806   -2.9469 H   0  0  0  0  0  0  0  0  0  0  0  0
   -0.1055    5.4949   -3.1023 H   0  0  0  0  0  0  0  0  0  0  0  0
    1.6629    2.6699    0.3257 H   0  0  0  0  0  0  0  0  0  0  0  0
   -0.2982   -0.0969    0.5737 H   0  0  0  0  0  0  0  0  0  0  0  0
   -1.8624    5.6548    4.3611 H   0  0  0  0  0  0  0  0  0  0  0  0
    1.8823    5.3302    2.1120 H   0  0  0  0  0  0  0  0  0  0  0  0
   -0.2911    0.2282    4.2201 H   0  0  0  0  0  0  0  0  0  0  0  0
    5.4370    6.7075    1.7866 H   0  0  0  0  0  0  0  0  0  0  0  0
  3  4  4  0
  1  4  4  0
  2  7  1  0
  5  8  1  0
  1  9  4  0
  7 10  1  0
  8 11  1  0
 10 13  1  0
 11 14  1  0
 12 15  4  0
 13 16  1  0
 14 17  1  0
 15 18  4  0
  1 19  1  0
  9 20  4  0
 20 22  4  0
  3 22  4  0
  6 23  4  0
 18 23  4  0
 12 24  4  0
  6 24  4  0
 18 25  1  0
 21 26  4  0
 15 26  4  0
  2 27  1  0
 21 27  4  0
 12 27  4  0
  5 30  1  0
  7 31  1  0
 19 34  1  0
  8 34  1  0
 10 35  1  0
 11 37  1  0
 13 38  1  0
  2 38  1  0
  5 39  1  0
 14 39  1  0
 16 40  1  0
 17 41  1  0
 19 42  2  0
 43 36  1  6
 28 43  2  0
 43 32  1  0
 40 43  1  0
 44 41  1  6
 29 44  2  0
 44 33  1  0
 36 44  1  0
  2 45  1  6
  3 46  1  0
  4 47  1  0
  5 48  1  1
  6 49  1  0
  7 50  1  1
  8 51  1  6
  9 52  1  0
 10 53  1  1
 11 54  1  6
 13 55  1  6
 14 56  1  1
 16 57  1  0
 16 58  1  0
 17 59  1  0
 17 60  1  0
 20 61  1  0
 21 62  1  0
 22 63  1  0
 25 64  1  0
 25 65  1  0
 30 66  1  0
 31 67  1  0
 32 68  1  0
 33 69  1  0
 35 70  1  0
 37 71  1  0
M  CHG  1  27   1
M  END
