7NFB_GEN_B_601
     RDKit          3D

 20 22  0  0  0  0  0  0  0  0999 V2000
    9.8130   -7.4778   17.7352 C   0  0  0  0  0  0  0  0  0  0  0  0
    9.0699   -6.4293   17.2081 C   0  0  0  0  0  0  0  0  0  0  0  0
    7.7140   -6.6084   17.0427 O   0  0  0  0  0  0  0  0  0  0  0  0
    9.6524   -5.2282   16.8303 C   0  0  0  0  0  0  0  0  0  0  0  0
   11.0214   -5.0770   17.0009 C   0  0  0  0  0  0  0  0  0  0  0  0
   11.5768   -3.9149   16.6333 O   0  0  0  0  0  0  0  0  0  0  0  0
   11.8198   -6.0934   17.5303 C   0  0  0  0  0  0  0  0  0  0  0  0
   13.2708   -5.9299   17.6759 C   0  0  0  0  0  0  0  0  0  0  0  0
   13.8230   -4.9167   17.3348 O   0  0  0  0  0  0  0  0  0  0  0  0
   13.9696   -7.0988   18.2176 C   0  0  0  0  0  0  0  0  0  0  0  0
   13.2311   -8.1350   18.6371 C   0  0  0  0  0  0  0  0  0  0  0  0
   11.8907   -8.3193   18.3955 O   0  0  0  0  0  0  0  0  0  0  0  0
   11.1949   -7.2712   17.8775 C   0  0  0  0  0  0  0  0  0  0  0  0
   15.4097   -7.1262   18.5503 C   0  0  0  0  0  0  0  0  0  0  0  0
   16.0386   -8.3731   18.6359 C   0  0  0  0  0  0  0  0  0  0  0  0
   17.3794   -8.4623   18.9793 C   0  0  0  0  0  0  0  0  0  0  0  0
   18.0852   -7.3095   19.2323 C   0  0  0  0  0  0  0  0  0  0  0  0
   19.4163   -7.4128   19.5713 O   0  0  0  0  0  0  0  0  0  0  0  0
   17.4920   -6.0542   19.1468 C   0  0  0  0  0  0  0  0  0  0  0  0
   16.1426   -5.9625   18.8088 C   0  0  0  0  0  0  0  0  0  0  0  0
  1  2  2  0
  2  3  1  0
  2  4  1  0
  4  5  2  0
  5  6  1  0
  5  7  1  0
  7  8  1  0
  8  9  2  0
  8 10  1  0
 10 11  2  0
 11 12  1  0
  1 13  1  0
  7 13  2  0
 12 13  1  0
 10 14  1  0
 14 15  2  0
 15 16  1  0
 16 17  2  0
 17 18  1  0
 17 19  1  0
 14 20  1  0
 19 20  2  0
M  END
