@<TRIPOS>MOLECULE
1T40_ID5_A_320
 38 40 0 0 0
SMALL
GASTEIGER

@<TRIPOS>ATOM
      1 C          15.7490   -9.4330   18.2100 C.ar    1  UNL1        0.0161
      2 C          16.3320  -10.4880   15.6250 C.ar    1  UNL1       -0.0434
      3 C          16.7090   -8.7860   17.3680 C.ar    1  UNL1        0.1361
      4 C          15.0900  -10.5960   17.7530 C.ar    1  UNL1        0.1269
      5 C          15.3760  -11.1360   16.4530 C.ar    1  UNL1       -0.0255
      6 C          17.0160   -9.3080   16.0570 C.ar    1  UNL1        0.0785
      7 F          16.5590   -2.2600    8.9250 F       1  UNL1       -0.2023
      8 F          14.1880  -11.1810   18.5750 F       1  UNL1       -0.2054
      9 C          18.0090   -8.6890   15.1130 C.2     1  UNL1        0.2479
     10 C          18.1820   -5.8950   13.3140 C.ar    1  UNL1        0.0968
     11 F          13.9470   -5.4410   11.4080 F       1  UNL1       -0.2042
     12 O          17.4100   -7.6270   17.7340 O.3     1  UNL1       -0.4800
     13 O          18.5170   -9.3520   14.1870 O.2     1  UNL1       -0.2701
     14 C          19.0650   -6.5780   14.3330 C.3     1  UNL1        0.0607
     15 C          16.9030   -6.7910   18.7820 C.3     1  UNL1        0.1857
     16 N          18.6190   -4.9630   12.4760 N.ar    1  UNL1       -0.2393
     17 S          16.5050   -6.3070   13.1860 S.2     1  UNL1       -0.0675
     18 F          18.8220   -2.9220   10.3870 F       1  UNL1       -0.2002
     19 C          16.2950   -5.1940   11.9370 C.ar    1  UNL1        0.0774
     20 C          16.4890   -3.2000    9.8950 C.ar    1  UNL1        0.1633
     21 C          17.5640   -4.5340   11.6670 C.ar    1  UNL1        0.1192
     22 C          15.1370   -4.8360   11.1700 C.ar    1  UNL1        0.1420
     23 C          15.2330   -3.8480   10.1570 C.ar    1  UNL1        0.0129
     24 C          17.6630   -3.5330   10.6420 C.ar    1  UNL1        0.1849
     25 C          15.6990   -6.0300   18.2590 C.2     1  UNL1        0.3427
     26 O          15.3220   -5.7950   17.1080 O.3     1  UNL1       -0.4783
     27 O          14.9480   -5.5550   19.2740 O.2     1  UNL1       -0.2472
     28 N          18.3440   -7.3480   15.3130 N.am    1  UNL1       -0.3051
     29 H          15.5394   -9.0519   19.1459 H       1  UNL1        0.0683
     30 H          16.5374  -10.8772   14.6915 H       1  UNL1        0.0627
     31 H          14.8921  -11.9859   16.1237 H       1  UNL1        0.0646
     32 H          19.6303   -5.8274   14.8448 H       1  UNL1        0.0532
     33 H          19.6835   -7.2653   13.7944 H       1  UNL1        0.0532
     34 H          17.6600   -6.0999   19.0891 H       1  UNL1        0.0815
     35 H          16.6183   -7.3910   19.6210 H       1  UNL1        0.0815
     36 H          14.3983   -3.5935    9.6061 H       1  UNL1        0.0676
     37 H          15.8192   -6.1096   16.3787 H       1  UNL1        0.2952
     38 H          18.0773   -6.9132   16.1551 H       1  UNL1        0.1494
@<TRIPOS>BOND
     1     1     3   ar
     2     1     4   ar
     3     2     5   ar
     4     4     5   ar
     5     2     6   ar
     6     3     6   ar
     7     4     8    1
     8     6     9    1
     9     3    12    1
    10     9    13    2
    11    10    14    1
    12    12    15    1
    13    10    16   ar
    14    10    17   ar
    15    17    19   ar
    16     7    20    1
    17    16    21   ar
    18    19    21   ar
    19    11    22    1
    20    19    22   ar
    21    20    23   ar
    22    22    23   ar
    23    18    24    1
    24    20    24   ar
    25    21    24   ar
    26    15    25    1
    27    25    26    1
    28    25    27    2
    29     9    28   am
    30    14    28    1
    31     1    29    1
    32     2    30    1
    33     5    31    1
    34    14    32    1
    35    14    33    1
    36    15    34    1
    37    15    35    1
    38    23    36    1
    39    26    37    1
    40    28    38    1
