7NU0_DCL_A_1004
     RDKit          3D

 23 22  0  0  0  0  0  0  0  0999 V2000
   24.4499  -12.9993  -26.1637 N   0  0  0  0  0  0  0  0  0  0  0  0
   23.0517  -13.3442  -26.4566 C   0  0  2  0  0  0  0  0  0  0  0  0
   22.8757  -14.8267  -26.1589 C   0  0  0  0  0  0  0  0  0  0  0  0
   22.6908  -13.0231  -27.9024 C   0  0  0  0  0  0  0  0  0  0  0  0
   23.2724  -11.7280  -28.4552 C   0  0  1  0  0  0  0  0  0  0  0  0
   22.6367  -11.4406  -29.8061 C   0  0  0  0  0  0  0  0  0  0  0  0
   23.0195  -10.5651  -27.4824 C   0  0  0  0  0  0  0  0  0  0  0  0
   24.1209  -15.4197  -25.8277 O   0  0  0  0  0  0  0  0  0  0  0  0
   24.6595  -13.2255  -25.1914 H   0  0  0  0  0  0  0  0  0  0  0  0
   24.5937  -12.0016  -26.3193 H   0  0  0  0  0  0  0  0  0  0  0  0
   22.3922  -12.7626  -25.8471 H   0  0  0  0  0  0  0  0  0  0  0  0
   22.4727  -15.3137  -27.0223 H   0  0  0  0  0  0  0  0  0  0  0  0
   22.2097  -14.9354  -25.3286 H   0  0  0  0  0  0  0  0  0  0  0  0
   21.6249  -12.9598  -27.9693 H   0  0  0  0  0  0  0  0  0  0  0  0
   23.1158  -13.8090  -28.4912 H   0  0  0  0  0  0  0  0  0  0  0  0
   24.3309  -11.8329  -28.5728 H   0  0  0  0  0  0  0  0  0  0  0  0
   21.5784  -11.3359  -29.6872 H   0  0  0  0  0  0  0  0  0  0  0  0
   22.8423  -12.2491  -30.4761 H   0  0  0  0  0  0  0  0  0  0  0  0
   23.0419  -10.5345  -30.2056 H   0  0  0  0  0  0  0  0  0  0  0  0
   21.9660  -10.4370  -27.3456 H   0  0  0  0  0  0  0  0  0  0  0  0
   23.4388   -9.6665  -27.8843 H   0  0  0  0  0  0  0  0  0  0  0  0
   23.4777  -10.7824  -26.5403 H   0  0  0  0  0  0  0  0  0  0  0  0
   24.7326  -15.3264  -26.5747 H   0  0  0  0  0  0  0  0  0  0  0  0
  2  1  1  0
  2  3  1  0
  2  4  1  0
  4  5  1  0
  5  6  1  0
  5  7  1  0
  3  8  1  0
  1  9  1  0
  1 10  1  0
  2 11  1  1
  3 12  1  0
  3 13  1  0
  4 14  1  0
  4 15  1  0
  5 16  1  6
  6 17  1  0
  6 18  1  0
  6 19  1  0
  7 20  1  0
  7 21  1  0
  7 22  1  0
  8 23  1  0
M  END
