1UOU_CMU_A_1481
     RDKit          3D

 27 28  0  0  0  0  0  0  0  0999 V2000
   -3.2792    0.0185   -0.8009 Cl  0  0  0  0  0  0  0  0  0  0  0  0
   -1.8210    0.1589   -1.7866 C   0  0  0  0  0  0  0  0  0  0  0  0
   -0.6675   -0.6108   -1.5340 C   0  0  0  0  0  0  0  0  0  0  0  0
   -0.5933   -1.5745   -0.3748 C   0  0  0  0  0  0  0  0  0  0  0  0
    0.0045   -0.9222    0.7907 N   0  0  0  0  0  0  0  0  0  0  0  0
   -0.7093   -0.0153    1.6729 C   0  0  0  0  0  0  0  0  0  0  0  0
    0.3177    0.4553    2.7198 C   0  0  0  0  0  0  0  0  0  0  0  0
    1.7038    0.0242    2.2187 C   0  0  0  0  0  0  0  0  0  0  0  0
    1.3894   -0.8688    1.0823 C   0  0  0  0  0  0  0  0  0  0  0  0
    2.2799   -1.5257    0.4103 N   0  0  0  0  0  0  0  0  0  0  0  0
    0.4297   -0.4462   -2.3275 N   0  0  0  0  0  0  0  0  0  0  0  0
    0.4267    0.4348   -3.3636 C   0  0  0  0  0  0  0  0  0  0  0  0
    1.4538    0.5632   -4.0829 O   0  0  0  0  0  0  0  0  0  0  0  0
   -0.6807    1.1783   -3.6243 N   0  0  0  0  0  0  0  0  0  0  0  0
   -1.7978    1.0585   -2.8592 C   0  0  0  0  0  0  0  0  0  0  0  0
   -2.8112    1.7618   -3.1198 O   0  0  0  0  0  0  0  0  0  0  0  0
   -1.5951   -1.9699   -0.1082 H   0  0  0  0  0  0  0  0  0  0  0  0
    0.0133   -2.4593   -0.6644 H   0  0  0  0  0  0  0  0  0  0  0  0
   -1.0810    0.8559    1.0919 H   0  0  0  0  0  0  0  0  0  0  0  0
   -1.5624   -0.5387    2.1559 H   0  0  0  0  0  0  0  0  0  0  0  0
    0.1051   -0.0335    3.6959 H   0  0  0  0  0  0  0  0  0  0  0  0
    0.2703    1.5579    2.8537 H   0  0  0  0  0  0  0  0  0  0  0  0
    2.2661   -0.5213    3.0069 H   0  0  0  0  0  0  0  0  0  0  0  0
    2.2845    0.9012    1.8601 H   0  0  0  0  0  0  0  0  0  0  0  0
    3.2949   -1.4596    0.6472 H   0  0  0  0  0  0  0  0  0  0  0  0
    1.2931   -1.0060   -2.1432 H   0  0  0  0  0  0  0  0  0  0  0  0
   -0.6723    1.8530   -4.4234 H   0  0  0  0  0  0  0  0  0  0  0  0
  1  2  1  0
  2  3  2  0
  3  4  1  0
  4  5  1  0
  5  6  1  0
  6  7  1  0
  7  8  1  0
  5  9  1  0
  8  9  1  0
  9 10  2  3
  3 11  1  0
 11 12  1  0
 12 13  2  0
 12 14  1  0
  2 15  1  0
 14 15  1  0
 15 16  2  0
  4 17  1  0
  4 18  1  0
  6 19  1  0
  6 20  1  0
  7 21  1  0
  7 22  1  0
  8 23  1  0
  8 24  1  0
 10 25  1  0
 11 26  1  0
 14 27  1  0
M  END
