7BHX_TO5_A_402
     RDKit          3D

 21 23  0  0  0  0  0  0  0  0999 V2000
   39.6501   45.7067   13.8246 C   0  0  0  0  0  0  0  0  0  0  0  0
   37.9181   44.6959   15.3630 C   0  0  0  0  0  0  0  0  0  0  0  0
   36.9291   42.6754   14.6381 C   0  0  0  0  0  0  0  0  0  0  0  0
   33.4918   39.5598   16.4102 C   0  0  0  0  0  0  0  0  0  0  0  0
   35.6379   40.4637   16.7318 C   0  0  0  0  0  0  0  0  0  0  0  0
   36.2843   43.6214   16.6874 C   0  0  0  0  0  0  0  0  0  0  0  0
   35.5228   43.6039   17.8433 C   0  0  0  0  0  0  0  0  0  0  0  0
   35.6237   44.6034   18.8014 C   0  0  0  0  0  0  0  0  0  0  0  0
   36.5198   45.6359   18.5687 C   0  0  0  0  0  0  0  0  0  0  0  0
   37.3011   45.6927   17.4259 C   0  0  0  0  0  0  0  0  0  0  0  0
   37.1617   44.6794   16.5121 C   0  0  0  0  0  0  0  0  0  0  0  0
   34.6519   44.5685   20.2624 Cl  0  0  0  0  0  0  0  0  0  0  0  0
   38.8573   45.7205   15.0550 N   0  0  0  0  0  0  0  0  0  0  0  0
   39.0421   46.8187   15.9845 C   0  0  0  0  0  0  0  0  0  0  0  0
   36.1728   42.6364   15.7620 N   0  0  0  0  0  0  0  0  0  0  0  0
   36.8029   41.7382   13.7886 O   0  0  0  0  0  0  0  0  0  0  0  0
   37.7821   43.6953   14.4579 N   0  0  0  0  0  0  0  0  0  0  0  0
   35.2566   41.5722   15.9904 C   0  0  0  0  0  0  0  0  0  0  0  0
   34.7275   39.4898   16.9137 N   0  0  0  0  0  0  0  0  0  0  0  0
   33.0616   40.6295   15.6713 C   0  0  0  0  0  0  0  0  0  0  0  0
   33.9663   41.6577   15.4579 C   0  0  0  0  0  0  0  0  0  0  0  0
  6  7  2  0
  7  8  1  0
  8  9  2  0
  9 10  1  0
  2 11  1  0
 10 11  2  0
  6 11  1  0
  8 12  1  0
  1 13  1  0
  2 13  1  0
 13 14  1  0
  3 15  1  0
  6 15  1  0
  3 16  2  0
  2 17  2  0
  3 17  1  0
 15 18  1  0
  5 18  2  0
  5 19  1  0
  4 19  2  0
  4 20  1  0
 18 21  1  0
 20 21  2  0
M  END
$$$$
