6XHT_V2V_E_301
     RDKit          3D

 34 35  0  0  0  0  0  0  0  0999 V2000
    8.3688  -23.4993   60.6595 C   0  0  0  0  0  0  0  0  0  0  0  0
    7.3586  -22.7488   59.8804 C   0  0  0  0  0  0  0  0  0  0  0  0
    8.8969  -22.7013   57.8329 C   0  0  0  0  0  0  0  0  0  0  0  0
    9.6417  -23.8287   59.9747 C   0  0  0  0  0  0  0  0  0  0  0  0
    6.5955  -21.6738   57.7425 C   0  0  2  0  0  0  0  0  0  0  0  0
    5.3468  -22.6351   57.7379 C   0  0  1  0  0  0  0  0  0  0  0  0
    4.2002  -21.5890   57.4062 C   0  0  1  0  0  0  0  0  0  0  0  0
    4.6212  -20.4514   57.9116 C   0  0  1  0  0  0  0  0  0  0  0  0
    3.8728  -20.0754   59.1802 C   0  0  0  0  0  0  0  0  0  0  0  0
    1.7549  -16.8318   62.3096 C   0  0  0  0  0  0  0  0  0  0  0  0
    0.7168  -15.6927   62.6625 C   0  0  2  0  0  0  0  0  0  0  0  0
   -0.0641  -15.3217   61.4222 C   0  0  2  0  0  0  0  0  0  0  0  0
    0.1654  -13.8439   60.9856 C   0  0  2  0  0  0  0  0  0  0  0  0
    1.6460  -13.6312   60.7298 C   0  0  0  0  0  0  0  0  0  0  0  0
    7.6333  -22.3794   58.5106 N   0  0  0  0  0  0  0  0  0  0  0  0
    9.9140  -23.4431   58.6042 N   0  0  0  0  0  0  0  0  0  0  0  0
   10.6496  -24.5747   60.7051 N   0  0  0  0  0  0  0  0  0  0  0  0
    9.0631  -22.3770   56.6921 O   0  0  0  0  0  0  0  0  0  0  0  0
    6.1872  -20.6492   58.4160 O   0  0  0  0  0  0  0  0  0  0  0  0
    4.3781  -20.8059   60.3127 O   0  0  0  0  0  0  0  0  0  0  0  0
    3.9975  -21.6369   62.7442 O   0  0  0  0  0  0  0  0  0  0  0  0
    2.0762  -21.6467   61.1037 O   0  0  0  0  0  0  0  0  0  0  0  0
    2.8594  -19.4339   62.0946 O   0  0  0  0  0  0  0  0  0  0  0  0
    2.6075  -19.5594   64.7137 O   0  0  0  0  0  0  0  0  0  0  0  0
    4.6247  -18.3952   63.7046 O   0  0  0  0  0  0  0  0  0  0  0  0
    2.2796  -17.2873   63.5733 O   0  0  0  0  0  0  0  0  0  0  0  0
    2.0073  -12.2506   60.6412 O   0  0  0  0  0  0  0  0  0  0  0  0
   -0.2710  -12.8861   61.9608 O   0  0  0  0  0  0  0  0  0  0  0  0
   -1.4364  -15.5817   61.6842 O   0  0  0  0  0  0  0  0  0  0  0  0
    1.3443  -14.5642   63.2471 O   0  0  0  0  0  0  0  0  0  0  0  0
    4.0738  -21.4919   55.9255 O   0  0  0  0  0  0  0  0  0  0  0  0
    5.3994  -23.6005   56.8077 O   0  0  0  0  0  0  0  0  0  0  0  0
    3.3153  -20.9536   61.6063 P   0  0  2  0  0  0  0  0  0  0  0  0
    3.1321  -18.6964   63.5555 P   0  0  1  0  0  0  0  0  0  0  0  0
  1  2  2  0
  1  4  1  0
  5  6  1  0
  6  7  1  0
  7  8  1  0
  8  9  1  1
 10 11  1  0
 11 12  1  0
 12 13  1  0
 13 14  1  0
  2 15  1  0
  3 15  1  0
  5 15  1  1
  3 16  1  0
  4 16  2  0
  4 17  1  0
  3 18  2  0
  5 19  1  0
  8 19  1  0
  9 20  1  0
 10 26  1  0
 14 27  1  0
 13 28  1  1
 12 29  1  1
 11 30  1  6
  7 31  1  6
  6 32  1  6
 20 33  1  0
 21 33  2  0
 33 22  1  6
 23 33  1  0
 23 34  1  0
 24 34  2  0
 34 25  1  1
 26 34  1  0
M  END
