8CSD_C5P_A_501
     RDKit          3D

 35 36  0  0  0  0  0  0  0  0999 V2000
   18.4830   43.4632   25.9432 O   0  0  0  0  0  0  0  0  0  0  0  0
   19.0319   44.8202   26.7908 P   0  0  1  0  0  5  0  0  0  0  0  0
   19.9402   44.3664   27.9121 O   0  0  0  0  0  0  0  0  0  0  0  0
   19.8925   45.8236   25.7325 O   0  0  0  0  0  0  0  0  0  0  0  0
   17.6876   45.6503   27.4300 O   0  0  0  0  0  0  0  0  0  0  0  0
   18.1296   46.4729   28.4850 C   0  0  1  0  0  0  0  0  0  0  0  0
   16.9238   47.1173   29.1798 C   0  0  1  0  0  0  0  0  0  0  0  0
   16.6055   48.3349   28.5321 O   0  0  0  0  0  0  0  0  0  0  0  0
   15.6941   46.1904   29.1809 C   0  0  1  0  0  0  0  0  0  0  0  0
   15.1292   46.1355   30.4667 O   0  0  0  0  0  0  0  0  0  0  0  0
   14.7624   46.8767   28.2097 C   0  0  1  0  0  0  0  0  0  0  0  0
   13.3987   46.7027   28.5188 O   0  0  0  0  0  0  0  0  0  0  0  0
   15.2194   48.3300   28.2711 C   0  0  2  0  0  0  0  0  0  0  0  0
   14.9184   49.0303   27.0049 N   0  0  0  0  0  0  0  0  0  0  0  0
   13.7181   49.6744   26.8272 C   0  0  0  0  0  0  0  0  0  0  0  0
   13.4374   50.2877   25.6477 N   0  0  0  0  0  0  0  0  0  0  0  0
   14.3160   50.2743   24.6141 C   0  0  0  0  0  0  0  0  0  0  0  0
   15.5320   49.6100   24.7566 C   0  0  0  0  0  0  0  0  0  0  0  0
   15.8127   48.9832   25.9683 C   0  0  0  0  0  0  0  0  0  0  0  0
   12.8585   49.7052   27.7488 O   0  0  0  0  0  0  0  0  0  0  0  0
   13.9850   50.9309   23.3904 N   0  0  0  0  0  0  0  0  0  0  0  0
   17.6971   43.7866   25.4347 H   0  0  0  0  0  0  0  0  0  0  0  0
   19.6958   46.7440   26.0410 H   0  0  0  0  0  0  0  0  0  0  0  0
   18.6973   45.8823   29.2402 H   0  0  0  0  0  0  0  0  0  0  0  0
   18.7786   47.2920   28.1004 H   0  0  0  0  0  0  0  0  0  0  0  0
   17.2248   47.3495   30.2260 H   0  0  0  0  0  0  0  0  0  0  0  0
   15.9225   45.1583   28.8230 H   0  0  0  0  0  0  0  0  0  0  0  0
   15.7354   45.5733   31.0164 H   0  0  0  0  0  0  0  0  0  0  0  0
   14.9490   46.4693   27.1908 H   0  0  0  0  0  0  0  0  0  0  0  0
   13.0968   47.4710   29.0695 H   0  0  0  0  0  0  0  0  0  0  0  0
   14.7336   48.8530   29.1262 H   0  0  0  0  0  0  0  0  0  0  0  0
   16.2470   49.5739   23.9443 H   0  0  0  0  0  0  0  0  0  0  0  0
   16.7528   48.4566   26.0690 H   0  0  0  0  0  0  0  0  0  0  0  0
   14.1211   51.9615   23.2933 H   0  0  0  0  0  0  0  0  0  0  0  0
   13.6046   50.3946   22.5789 H   0  0  0  0  0  0  0  0  0  0  0  0
  2  1  1  6
  2  3  2  0
  2  4  1  0
  2  5  1  0
  5  6  1  0
  7  6  1  0
  7  8  1  0
  7  9  1  0
  9 10  1  0
  9 11  1  0
 11 12  1  0
  8 13  1  0
 11 13  1  0
 13 14  1  0
 14 15  1  0
 15 16  1  0
 16 17  2  0
 17 18  1  0
 14 19  1  0
 18 19  2  0
 15 20  2  0
 17 21  1  0
  1 22  1  0
  4 23  1  0
  6 24  1  1
  6 25  1  0
  7 26  1  1
  9 27  1  6
 10 28  1  0
 11 29  1  6
 12 30  1  0
 13 31  1  1
 18 32  1  0
 19 33  1  0
 21 34  1  0
 21 35  1  0
M  END
