
     RDKit          3D

 19 20  0  0  0  0  0  0  0  0999 V2000
    6.8609   21.6975   25.1213 C   0  0  1  0  0  0  0  0  0  0  0  0
    6.6192   20.9404   23.7900 C   0  0  2  0  0  0  0  0  0  0  0  0
    7.9269   20.3658   23.2376 C   0  0  1  0  0  0  0  0  0  0  0  0
    8.6423   19.5298   24.2986 C   0  0  1  0  0  0  0  0  0  0  0  0
    8.8531   20.3862   25.5567 C   0  0  2  0  0  0  0  0  0  0  0  0
    9.4903   19.6009   26.6980 C   0  0  0  0  0  0  0  0  0  0  0  0
    5.9987   21.7363   22.7751 O   0  0  0  0  0  0  0  0  0  0  0  0
    7.6261   19.5417   22.0959 O   0  0  0  0  0  0  0  0  0  0  0  0
    7.8296   18.3698   24.5445 O   0  0  0  0  0  0  0  0  0  0  0  0
    7.6201   20.9203   26.0556 O   0  0  0  0  0  0  0  0  0  0  0  0
    8.8459   23.4319   26.8381 O   0  0  0  0  0  0  0  0  0  0  0  0
    7.8908   23.6922   26.1179 C   0  0  0  0  0  0  0  0  0  0  0  0
    7.5388   22.9679   24.9964 N   0  0  0  0  0  0  0  0  0  0  0  0
    7.0709   24.9087   26.3819 C   0  0  0  0  0  0  0  0  0  0  0  0
    7.7293   26.1130   26.6597 C   0  0  0  0  0  0  0  0  0  0  0  0
    5.6699   24.8699   26.3810 C   0  0  0  0  0  0  0  0  0  0  0  0
    4.9386   26.0334   26.6324 C   0  0  0  0  0  0  0  0  0  0  0  0
    5.6010   27.2334   26.8914 C   0  0  0  0  0  0  0  0  0  0  0  0
    6.9949   27.2735   26.9091 C   0  0  0  0  0  0  0  0  0  0  0  0
  1  2  1  0
  2  3  1  0
  3  4  1  0
  4  5  1  0
  5  6  1  1
  2  7  1  6
  3  8  1  6
  4  9  1  1
  1 10  1  0
  5 10  1  0
 11 12  2  0
  1 13  1  6
 12 13  1  0
 12 14  1  0
 14 15  4  0
 14 16  4  0
 16 17  4  0
 17 18  4  0
 18 19  4  0
 15 19  4  0
M  END
