1L7F_BCZ_A_801
     RDKit          3D

 23 23  0  0  0  0  0  0  0  0999 V2000
   26.7270   19.4019   62.4900 C   0  0  1  0  0  0  0  0  0  0  0  0
   26.4809   19.1070   61.0785 N   0  0  0  0  0  0  0  0  0  0  0  0
   25.5094   19.6802   60.4590 C   0  0  0  0  0  0  0  0  0  0  0  0
   24.7131   20.6788   60.9549 N   0  0  0  0  0  0  0  0  0  0  0  0
   25.2566   19.3119   59.1578 N   0  0  0  0  0  0  0  0  0  0  0  0
   27.5461   18.2318   63.1086 C   0  0  2  0  0  0  0  0  0  0  0  0
   26.7501   16.9101   63.3964 C   0  0  2  0  0  0  0  0  0  0  0  0
   27.7073   15.7407   63.8639 C   0  0  2  0  0  0  0  0  0  0  0  0
   28.6808   15.2944   62.7307 C   0  0  0  0  0  0  0  0  0  0  0  0
   29.7176   14.2042   63.0881 C   0  0  0  0  0  0  0  0  0  0  0  0
   26.8185   14.5643   64.3928 C   0  0  0  0  0  0  0  0  0  0  0  0
   26.0178   14.8876   65.6742 C   0  0  0  0  0  0  0  0  0  0  0  0
   25.9858   16.5054   62.2086 N   0  0  0  0  0  0  0  0  0  0  0  0
   24.7373   15.9808   62.3443 C   0  0  0  0  0  0  0  0  0  0  0  0
   24.1508   15.2283   61.1644 C   0  0  0  0  0  0  0  0  0  0  0  0
   24.0389   16.0607   63.3442 O   0  0  0  0  0  0  0  0  0  0  0  0
   28.1687   18.8486   64.4106 C   0  0  2  0  0  0  0  0  0  0  0  0
   27.2265   18.6767   65.5070 O   0  0  0  0  0  0  0  0  0  0  0  0
   28.2862   20.3827   64.1153 C   0  0  1  0  0  0  0  0  0  0  0  0
   29.6673   20.9382   64.2760 C   0  0  0  0  0  0  0  0  0  0  0  0
   29.9063   22.0740   64.6851 O   0  0  0  0  0  0  0  0  0  0  0  0
   30.6813   20.1667   63.8808 O   0  0  0  0  0  0  0  0  0  0  0  0
   27.7185   20.5832   62.6871 C   0  0  0  0  0  0  0  0  0  0  0  0
  1  2  1  6
  2  3  1  0
  3  4  2  0
  3  5  1  0
  6  1  1  1
  6  7  1  0
  7  8  1  0
  8  9  1  6
  9 10  1  0
  8 11  1  0
 11 12  1  0
  7 13  1  6
 13 14  1  0
 14 15  1  0
 14 16  2  0
  6 17  1  0
 17 18  1  1
 17 19  1  0
 19 20  1  6
 20 21  2  0
 20 22  1  0
  1 23  1  0
 19 23  1  0
M  END
