@<TRIPOS>MOLECULE
1T46_STI_A_3
 68 72 0 0 0
SMALL
GASTEIGER

@<TRIPOS>ATOM
      1 C          -0.0475   -3.0952    4.8230 C.ar    1  UNL1       -0.0430
      2 C          -0.6783   -4.1003    4.0869 C.ar    1  UNL1       -0.0497
      3 C          -0.1020   -4.5731    2.8931 C.ar    1  UNL1        0.0186
      4 C           1.1078   -3.9928    2.4689 C.ar    1  UNL1        0.0367
      5 N           1.6999   -3.0150    3.2053 N.ar    1  UNL1       -0.2626
      6 C           1.1543   -2.5603    4.3624 C.ar    1  UNL1        0.0276
      7 C          -0.7589   -5.6144    2.0598 C.ar    1  UNL1        0.0775
      8 C          -1.6664   -6.5425    2.5945 C.ar    1  UNL1       -0.0174
      9 C          -2.2513   -7.4768    1.7391 C.ar    1  UNL1        0.0332
     10 N          -1.9413   -7.4799    0.4172 N.ar    1  UNL1       -0.2226
     11 C          -1.0614   -6.5806   -0.0946 C.ar    1  UNL1        0.2200
     12 N          -0.4739   -5.6730    0.7309 N.ar    1  UNL1       -0.2142
     13 N          -0.7393   -6.6140   -1.4929 N.pl3   1  UNL1       -0.2833
     14 C           0.0677   -5.6126   -2.1436 C.ar    1  UNL1        0.0383
     15 C           1.0277   -5.9797   -3.1144 C.ar    1  UNL1       -0.0291
     16 C           1.7945   -4.9825   -3.7395 C.ar    1  UNL1       -0.0553
     17 C           1.6333   -3.6398   -3.3937 C.ar    1  UNL1       -0.0401
     18 C           0.6932   -3.2666   -2.4216 C.ar    1  UNL1        0.0354
     19 C          -0.1112   -4.2513   -1.8358 C.ar    1  UNL1       -0.0190
     20 N           0.5114   -1.8909   -2.0451 N.am    1  UNL1       -0.2814
     21 C           1.5986   -0.9579   -1.9069 C.2     1  UNL1        0.2483
     22 C           1.3413    0.4903   -1.7086 C.ar    1  UNL1        0.0370
     23 C           0.1133    1.0683   -2.0800 C.ar    1  UNL1       -0.0493
     24 C          -0.1217    2.4305   -1.8734 C.ar    1  UNL1       -0.0566
     25 C           0.8684    3.2426   -1.3013 C.ar    1  UNL1       -0.0333
     26 C           2.0980    2.6746   -0.9404 C.ar    1  UNL1       -0.0566
     27 C           2.3349    1.3126   -1.1464 C.ar    1  UNL1       -0.0493
     28 C           0.6112    4.7053   -1.0517 C.3     1  UNL1        0.0241
     29 N           0.5289    4.9776    0.4005 N.3     1  UNL1       -0.2957
     30 C           0.7398    6.4050    0.7184 C.3     1  UNL1        0.0120
     31 C          -0.4913    7.2576    0.3820 C.3     1  UNL1        0.0114
     32 N          -1.6686    6.7457    1.1045 N.3     1  UNL1       -0.3029
     33 C          -2.8424    7.5820    0.8141 C.3     1  UNL1       -0.0127
     34 C          -1.9346    5.3496    0.7157 C.3     1  UNL1        0.0114
     35 C          -0.7137    4.4683    1.0247 C.3     1  UNL1        0.0120
     36 O           2.7883   -1.3802   -1.8989 O.2     1  UNL1       -0.2699
     37 C           1.2447   -7.4215   -3.4840 C.3     1  UNL1       -0.0380
     38 H          -0.4931   -2.7266    5.7376 H       1  UNL1        0.0633
     39 H          -1.6261   -4.4796    4.4423 H       1  UNL1        0.0625
     40 H           1.5880   -4.3176    1.5546 H       1  UNL1        0.0836
     41 H           1.6517   -1.7763    4.9206 H       1  UNL1        0.0829
     42 H          -1.9079   -6.5673    3.6480 H       1  UNL1        0.0654
     43 H          -2.9522   -8.2027    2.1268 H       1  UNL1        0.0831
     44 H          -1.0541   -7.4466   -2.0410 H       1  UNL1        0.1550
     45 H           2.5253   -5.2437   -4.4949 H       1  UNL1        0.0621
     46 H           2.2294   -2.8929   -3.9005 H       1  UNL1        0.0636
     47 H          -0.8754   -3.9515   -1.1300 H       1  UNL1        0.0655
     48 H          -0.4256   -1.6133   -1.6762 H       1  UNL1        0.1551
     49 H          -0.6651    0.4774   -2.5439 H       1  UNL1        0.0625
     50 H          -1.0786    2.8497   -2.1574 H       1  UNL1        0.0621
     51 H           2.8727    3.2877   -0.4954 H       1  UNL1        0.0621
     52 H           3.2917    0.8997   -0.8512 H       1  UNL1        0.0625
     53 H           1.4592    5.2676   -1.5026 H       1  UNL1        0.0476
     54 H          -0.3037    5.0449   -1.5821 H       1  UNL1        0.0476
     55 H           0.9576    6.5029    1.8043 H       1  UNL1        0.0439
     56 H           1.6300    6.8013    0.1824 H       1  UNL1        0.0439
     57 H          -0.6648    7.2630   -0.7178 H       1  UNL1        0.0439
     58 H          -0.2810    8.3029    0.6983 H       1  UNL1        0.0439
     59 H          -2.6547    8.6283    1.1370 H       1  UNL1        0.0391
     60 H          -3.7235    7.2150    1.3834 H       1  UNL1        0.0391
     61 H          -3.0841    7.5774   -0.2718 H       1  UNL1        0.0391
     62 H          -2.7955    4.9566    1.3001 H       1  UNL1        0.0439
     63 H          -2.2033    5.2756   -0.3613 H       1  UNL1        0.0439
     64 H          -0.5695    4.4325    2.1267 H       1  UNL1        0.0439
     65 H          -0.9208    3.4254    0.7046 H       1  UNL1        0.0439
     66 H           0.3551   -7.8081   -4.0239 H       1  UNL1        0.0278
     67 H           1.4114   -8.0261   -2.5670 H       1  UNL1        0.0278
     68 H           2.1321   -7.5458   -4.1396 H       1  UNL1        0.0278
@<TRIPOS>BOND
     1     1     2   ar
     2     2     3   ar
     3     3     4   ar
     4     4     5   ar
     5     1     6   ar
     6     5     6   ar
     7     3     7    1
     8     7     8   ar
     9     8     9   ar
    10     9    10   ar
    11    10    11   ar
    12     7    12   ar
    13    11    12   ar
    14    11    13    1
    15    13    14    1
    16    14    15   ar
    17    15    16   ar
    18    16    17   ar
    19    17    18   ar
    20    14    19   ar
    21    18    19   ar
    22    18    20    1
    23    20    21   am
    24    21    22    1
    25    22    23   ar
    26    23    24   ar
    27    24    25   ar
    28    25    26   ar
    29    22    27   ar
    30    26    27   ar
    31    25    28    1
    32    28    29    1
    33    29    30    1
    34    30    31    1
    35    31    32    1
    36    32    33    1
    37    32    34    1
    38    29    35    1
    39    34    35    1
    40    21    36    2
    41    15    37    1
    42     1    38    1
    43     2    39    1
    44     4    40    1
    45     6    41    1
    46     8    42    1
    47     9    43    1
    48    13    44    1
    49    16    45    1
    50    17    46    1
    51    19    47    1
    52    20    48    1
    53    23    49    1
    54    24    50    1
    55    26    51    1
    56    27    52    1
    57    28    53    1
    58    28    54    1
    59    30    55    1
    60    30    56    1
    61    31    57    1
    62    31    58    1
    63    33    59    1
    64    33    60    1
    65    33    61    1
    66    34    62    1
    67    34    63    1
    68    35    64    1
    69    35    65    1
    70    37    66    1
    71    37    67    1
    72    37    68    1
