7NUT_GLP_A_501
     RDKit          3D

 16 16  0  0  0  0  0  0  0  0999 V2000
    2.8701   -4.8412  -38.3402 C   0  0  1  0  0  0  0  0  0  0  0  0
    2.7045   -3.3918  -38.0015 C   0  0  1  0  0  0  0  0  0  0  0  0
    2.5233   -3.1217  -36.5275 C   0  0  2  0  0  0  0  0  0  0  0  0
    1.7897   -4.2306  -35.8254 C   0  0  1  0  0  0  0  0  0  0  0  0
    2.2026   -5.5899  -36.2706 C   0  0  1  0  0  0  0  0  0  0  0  0
    0.9501   -6.3780  -36.6643 C   0  0  0  0  0  0  0  0  0  0  0  0
    3.8950   -4.9841  -39.2775 O   0  0  0  0  0  0  0  0  0  0  0  0
    3.8468   -2.5816  -38.4034 N   0  0  0  0  0  0  0  0  0  0  0  0
    1.8616   -1.9126  -36.4202 O   0  0  0  0  0  0  0  0  0  0  0  0
    2.0559   -4.0813  -34.4498 O   0  0  0  0  0  0  0  0  0  0  0  0
    3.1576   -5.6350  -37.2536 O   0  0  0  0  0  0  0  0  0  0  0  0
    1.2138   -7.7121  -36.8898 O   0  0  0  0  0  0  0  0  0  0  0  0
    0.9707   -8.5673  -35.4356 P   0  0  2  0  0  0  0  0  0  0  0  0
   -0.4642   -8.3838  -35.0255 O   0  0  0  0  0  0  0  0  0  0  0  0
    2.0421   -7.9992  -34.2574 O   0  0  0  0  0  0  0  0  0  0  0  0
    1.3259  -10.2165  -35.7063 O   0  0  0  0  0  0  0  0  0  0  0  0
  1  2  1  0
  2  3  1  0
  3  4  1  0
  4  5  1  0
  5  6  1  6
  1  7  1  6
  2  8  1  1
  3  9  1  6
  4 10  1  1
  1 11  1  0
  5 11  1  0
  6 12  1  0
 12 13  1  0
 13 14  2  0
 13 15  1  1
 13 16  1  0
M  END
$$$$
