
     RDKit          3D

 35 37  0  0  0  0  0  0  0  0999 V2000
   44.8200  -16.0664    6.2605 O   0  0  0  0  0  0  0  0  0  0  0  0
   45.3385  -14.8447    7.1650 P   0  0  2  0  0  5  0  0  0  0  0  0
   44.1985  -14.1550    7.8314 O   0  0  0  0  0  0  0  0  0  0  0  0
   46.2254  -13.9739    6.1587 O   0  0  0  0  0  0  0  0  0  0  0  0
   46.7496  -12.7525    6.6531 C   0  0  1  0  0  0  0  0  0  0  0  0
   48.1464  -12.6367    6.3631 O   0  0  0  0  0  0  0  0  0  0  0  0
   48.4507  -12.6181    4.9639 C   0  0  2  0  0  0  0  0  0  0  0  0
   49.9666  -12.5001    4.8241 C   0  0  0  0  0  0  0  0  0  0  0  0
   45.9934  -11.5563    6.0438 C   0  0  2  0  0  0  0  0  0  0  0  0
   44.5908  -11.6035    6.3209 O   0  0  0  0  0  0  0  0  0  0  0  0
   46.2188  -11.5198    4.5252 C   0  0  1  0  0  0  0  0  0  0  0  0
   45.5010  -10.3754    3.9079 N   0  0  0  0  0  0  0  0  0  0  0  0
   47.7301  -11.4670    4.2326 C   0  0  2  0  0  0  0  0  0  0  0  0
   47.9417  -11.5221    2.8152 O   0  0  0  0  0  0  0  0  0  0  0  0
   46.3732  -15.5843    8.1199 O   0  0  0  0  0  0  0  0  0  0  0  0
   47.3616  -16.7007    7.5813 P   0  0  2  0  0  5  0  0  0  0  0  0
   48.6875  -16.4253    8.4405 O   0  0  0  0  0  0  0  0  0  0  0  0
   47.5909  -16.7539    6.1116 O   0  0  0  0  0  0  0  0  0  0  0  0
   46.8497  -18.0577    8.2653 O   0  0  0  0  0  0  0  0  0  0  0  0
   45.6145  -18.5904    7.8003 C   0  0  0  0  0  0  0  0  0  0  0  0
   44.6161  -18.6274    8.9597 C   0  0  1  0  0  0  0  0  0  0  0  0
   45.2219  -19.2608   10.1040 O   0  0  0  0  0  0  0  0  0  0  0  0
   44.1654  -17.2403    9.4135 C   0  0  1  0  0  0  0  0  0  0  0  0
   43.0285  -16.7875    8.6888 O   0  0  0  0  0  0  0  0  0  0  0  0
   43.8253  -17.4513   10.8709 C   0  0  0  0  0  0  0  0  0  0  0  0
   44.6710  -18.6531   11.2824 C   0  0  2  0  0  0  0  0  0  0  0  0
   45.7604  -18.3908   12.2163 N   0  0  0  0  0  0  0  0  0  0  0  0
   45.5895  -18.6387   13.5718 C   0  0  0  0  0  0  0  0  0  0  0  0
   44.5869  -19.1466   14.0671 O   0  0  0  0  0  0  0  0  0  0  0  0
   46.6421  -18.2988   14.3792 N   0  0  0  0  0  0  0  0  0  0  0  0
   46.9220  -17.8147   11.7372 C   0  0  0  0  0  0  0  0  0  0  0  0
   47.9767  -17.5500   12.5214 C   0  0  0  0  0  0  0  0  0  0  0  0
   49.2515  -16.9302   12.0483 C   0  0  0  0  0  0  0  0  0  0  0  0
   47.8749  -17.8945   13.9565 C   0  0  0  0  0  0  0  0  0  0  0  0
   48.8369  -17.8317   14.7144 O   0  0  0  0  0  0  0  0  0  0  0  0
  2  1  1  6
  2  3  2  0
  2  4  1  0
  5  4  1  6
  5  6  1  0
  6  7  1  0
  7  8  1  1
  5  9  1  0
  9 10  1  6
  9 11  1  0
 11 12  1  1
  7 13  1  0
 11 13  1  0
 13 14  1  6
  2 15  1  0
 16 15  1  0
 16 17  1  1
 16 18  2  0
 16 19  1  0
 19 20  1  0
 21 20  1  6
 21 22  1  0
 21 23  1  0
 23 24  1  6
 23 25  1  0
 22 26  1  0
 25 26  1  0
 26 27  1  1
 27 28  4  0
 28 29  2  0
 28 30  4  0
 27 31  4  0
 31 32  4  0
 32 33  1  0
 30 34  4  0
 32 34  4  0
 34 35  2  0
M  END
