7CD9_FVR_A_501
     RDKit          3D

 33 37  0  0  0  0  0  0  0  0999 V2000
   29.8332    0.2844   22.8299 C   0  0  0  0  0  0  0  0  0  0  0  0
   30.9064    0.9071   21.9631 C   0  0  1  0  0  0  0  0  0  0  0  0
   30.2365    1.8149   20.8953 C   0  0  0  0  0  0  0  0  0  0  0  0
   32.9217    1.2202   23.5532 C   0  0  0  0  0  0  0  0  0  0  0  0
   34.9946    1.3129   24.6760 C   0  0  0  0  0  0  0  0  0  0  0  0
   34.7722    0.1075   25.3039 C   0  0  0  0  0  0  0  0  0  0  0  0
   33.5880   -0.5243   25.0263 C   0  0  0  0  0  0  0  0  0  0  0  0
   33.5242   -1.7115   25.7335 C   0  0  0  0  0  0  0  0  0  0  0  0
   27.6459    2.3850   16.6727 C   0  0  0  0  0  0  0  0  0  0  0  0
   28.9630    2.4939   17.0640 C   0  0  0  0  0  0  0  0  0  0  0  0
   29.3771    2.0698   18.3117 C   0  0  0  0  0  0  0  0  0  0  0  0
   28.4491    1.5211   19.1938 C   0  0  0  0  0  0  0  0  0  0  0  0
   27.1302    1.4047   18.8199 C   0  0  0  0  0  0  0  0  0  0  0  0
   26.7282    1.8397   17.5517 C   0  0  0  0  0  0  0  0  0  0  0  0
   28.9701    1.0903   20.5112 C   0  0  2  0  0  0  0  0  0  0  0  0
   27.9812    1.2804   21.6174 C   0  0  0  0  0  0  0  0  0  0  0  0
   34.7017   -1.7872   26.4506 C   0  0  0  0  0  0  0  0  0  0  0  0
   34.3663    3.1205   23.2650 C   0  0  0  0  0  0  0  0  0  0  0  0
   27.7751    0.7600   23.9735 C   0  0  0  0  0  0  0  0  0  0  0  0
   27.7564    2.2505   14.2104 C   0  0  0  0  0  0  0  0  0  0  0  0
   27.2272    2.9645   13.0079 C   0  0  0  0  0  0  0  0  0  0  0  0
   26.8771    4.3010   13.0347 C   0  0  0  0  0  0  0  0  0  0  0  0
   26.4003    4.8582   11.8690 C   0  0  0  0  0  0  0  0  0  0  0  0
   26.2698    4.1294   10.7106 C   0  0  0  0  0  0  0  0  0  0  0  0
   26.6234    2.7886   10.6919 C   0  0  0  0  0  0  0  0  0  0  0  0
   27.1029    2.2157   11.8523 C   0  0  0  0  0  0  0  0  0  0  0  0
   28.6211    1.0506   22.8647 N   0  0  0  0  0  0  0  0  0  0  0  0
   31.9174    1.6087   22.6596 N   0  0  0  0  0  0  0  0  0  0  0  0
   34.0620    1.8306   23.8219 N   0  0  0  0  0  0  0  0  0  0  0  0
   32.7174    0.0196   24.1898 N   0  0  0  0  0  0  0  0  0  0  0  0
   35.4228   -0.6747   26.1638 N   0  0  0  0  0  0  0  0  0  0  0  0
   36.0745    1.8935   24.9264 O   0  0  0  0  0  0  0  0  0  0  0  0
   27.3069    2.8331   15.4035 O   0  0  0  0  0  0  0  0  0  0  0  0
  1  2  1  0
  2  3  1  0
  5  6  1  0
  6  7  2  0
  7  8  1  0
  9 10  2  0
 10 11  1  0
 11 12  2  0
 12 13  1  0
 13 14  2  0
  9 14  1  0
  3 15  1  0
 15 12  1  6
 15 16  1  0
  8 17  2  0
 20 21  1  0
 21 22  2  0
 22 23  1  0
 23 24  2  0
 24 25  1  0
 21 26  1  0
 25 26  2  0
 19 27  1  0
  1 27  1  0
 16 27  1  0
  2 28  1  1
  4 28  1  0
  4 29  1  0
  5 29  1  0
 18 29  1  0
  7 30  1  0
  4 30  2  0
 17 31  1  0
  6 31  1  0
  5 32  2  0
  9 33  1  0
 20 33  1  0
M  END
$$$$
