8FO5_Y4U_C_301
     RDKit          3D

 28 29  0  0  0  0  0  0  0  0999 V2000
    1.8050  -13.3555    0.8801 O   0  0  0  0  0  0  0  0  0  0  0  0
    5.8330   -8.3523    3.6105 O   0  0  0  0  0  0  0  0  0  0  0  0
    3.8019   -7.0873    0.4833 C   0  0  0  0  0  0  0  0  0  0  0  0
    3.0853   -5.9562    0.0792 C   0  0  0  0  0  0  0  0  0  0  0  0
    2.7457   -4.9723    1.0123 C   0  0  0  0  0  0  0  0  0  0  0  0
    3.1252   -5.1167    2.3500 C   0  0  0  0  0  0  0  0  0  0  0  0
    3.8417   -6.2467    2.7568 C   0  0  0  0  0  0  0  0  0  0  0  0
    3.8201  -10.6345    3.7341 C   0  0  0  0  0  0  0  0  0  0  0  0
    2.8580  -11.6088    3.5551 C   0  0  0  0  0  0  0  0  0  0  0  0
    2.4627  -11.5257    2.2288 C   0  0  0  0  0  0  0  0  0  0  0  0
    1.4463  -12.3535    1.5553 C   0  0  0  0  0  0  0  0  0  0  0  0
   -0.0093  -12.0216    1.6603 C   0  0  0  0  0  0  0  0  0  0  0  0
    3.1978  -10.5066    1.6525 C   0  0  0  0  0  0  0  0  0  0  0  0
    5.0993   -8.6499    2.3324 S   0  0  1  0  0  6  0  0  0  0  0  0
    6.1120   -9.0074    1.2804 O   0  0  0  0  0  0  0  0  0  0  0  0
    4.0201   -9.9796    2.5762 N   0  0  0  0  0  4  0  0  0  0  0  0
    4.1763   -7.2408    1.8259 C   0  0  0  0  0  0  0  0  0  0  0  0
    4.0669   -7.8386   -0.2497 H   0  0  0  0  0  0  0  0  0  0  0  0
    2.7959   -5.8412   -0.9573 H   0  0  0  0  0  0  0  0  0  0  0  0
    2.1921   -4.0967    0.6984 H   0  0  0  0  0  0  0  0  0  0  0  0
    2.8666   -4.3519    3.0710 H   0  0  0  0  0  0  0  0  0  0  0  0
    4.1380   -6.3441    3.7935 H   0  0  0  0  0  0  0  0  0  0  0  0
    4.3353  -10.4148    4.6603 H   0  0  0  0  0  0  0  0  0  0  0  0
    2.4869  -12.2916    4.3080 H   0  0  0  0  0  0  0  0  0  0  0  0
   -0.3230  -12.0456    2.7249 H   0  0  0  0  0  0  0  0  0  0  0  0
   -0.6190  -12.7562    1.0924 H   0  0  0  0  0  0  0  0  0  0  0  0
   -0.1935  -11.0088    1.2448 H   0  0  0  0  0  0  0  0  0  0  0  0
    3.1300  -10.1661    0.6270 H   0  0  0  0  0  0  0  0  0  0  0  0
  3  4  4  0
  4  5  4  0
  5  6  4  0
  6  7  4  0
  8  9  4  0
  9 10  4  0
  1 11  2  0
 10 11  1  0
 11 12  1  0
 10 13  4  0
  2 14  2  0
 14 15  2  0
 14 16  1  0
 13 16  4  0
  8 16  4  0
  7 17  4  0
 14 17  1  1
  3 17  4  0
  3 18  1  0
  4 19  1  0
  5 20  1  0
  6 21  1  0
  7 22  1  0
  8 23  1  0
  9 24  1  0
 12 25  1  0
 12 26  1  0
 12 27  1  0
 13 28  1  0
M  CHG  1  16   1
M  END
