1G9V_RQ3_A_801
     RDKit          3D

 48 49  0  0  0  0  0  0  0  0999 V2000
    1.8002   -0.1184   11.8133 C   0  0  0  0  0  0  0  0  0  0  0  0
    2.4961   -1.0107   12.6258 O   0  0  0  0  0  0  0  0  0  0  0  0
    2.0099   -0.1221   10.5693 O   0  0  0  0  0  0  0  0  0  0  0  0
    0.8474    0.8825   12.4293 C   0  0  1  0  0  0  0  0  0  0  0  0
   -0.5661    0.5420   11.9148 C   0  0  0  0  0  0  0  0  0  0  0  0
    0.9485    0.7712   13.9663 C   0  0  0  0  0  0  0  0  0  0  0  0
    1.2682    2.1840   11.9825 O   0  0  0  0  0  0  0  0  0  0  0  0
    2.2922    3.0307   12.4541 C   0  0  0  0  0  0  0  0  0  0  0  0
    3.5044    2.5839   13.0201 C   0  0  0  0  0  0  0  0  0  0  0  0
    4.4596    3.5034   13.4655 C   0  0  0  0  0  0  0  0  0  0  0  0
    4.2328    4.8822   13.3427 C   0  0  0  0  0  0  0  0  0  0  0  0
    2.0695    4.4108   12.3494 C   0  0  0  0  0  0  0  0  0  0  0  0
    3.0255    5.3301   12.7899 C   0  0  0  0  0  0  0  0  0  0  0  0
    5.2435    5.8685   13.8591 C   0  0  0  0  0  0  0  0  0  0  0  0
    5.2455    5.8551   15.3566 C   0  0  0  0  0  0  0  0  0  0  0  0
    6.1289    6.5008   15.9801 O   0  0  0  0  0  0  0  0  0  0  0  0
    4.2543    5.0983   16.0708 N   0  0  0  0  0  0  0  0  0  0  0  0
    3.4382    4.0857   15.4608 C   0  0  0  0  0  0  0  0  0  0  0  0
    3.8842    2.7556   15.3651 C   0  0  0  0  0  0  0  0  0  0  0  0
    3.0839    1.7805   14.7521 C   0  0  0  0  0  0  0  0  0  0  0  0
    1.8493    2.1484   14.1964 C   0  0  0  0  0  0  0  0  0  0  0  0
    2.2046    4.4407   14.8999 C   0  0  0  0  0  0  0  0  0  0  0  0
    1.4096    3.4791   14.2598 C   0  0  0  0  0  0  0  0  0  0  0  0
    3.5826    0.3716   14.6182 C   0  0  0  0  0  0  0  0  0  0  0  0
    0.0699    3.8619   13.7025 C   0  0  0  0  0  0  0  0  0  0  0  0
    3.1517   -1.6726   12.2291 H   0  0  0  0  0  0  0  0  0  0  0  0
   -1.3608    1.1162   12.4221 H   0  0  0  0  0  0  0  0  0  0  0  0
   -0.7963   -0.5316   12.0896 H   0  0  0  0  0  0  0  0  0  0  0  0
   -0.6330    0.7411   10.8228 H   0  0  0  0  0  0  0  0  0  0  0  0
    1.9899    0.9845   14.2936 H   0  0  0  0  0  0  0  0  0  0  0  0
    0.2800    1.4766   14.4910 H   0  0  0  0  0  0  0  0  0  0  0  0
    0.6737   -0.2512   14.3057 H   0  0  0  0  0  0  0  0  0  0  0  0
    3.7413    1.5430   13.1345 H   0  0  0  0  0  0  0  0  0  0  0  0
    5.3786    3.1388   13.9083 H   0  0  0  0  0  0  0  0  0  0  0  0
    1.1433    4.7744   11.9227 H   0  0  0  0  0  0  0  0  0  0  0  0
    2.8226    6.3910   12.7044 H   0  0  0  0  0  0  0  0  0  0  0  0
    5.0048    6.8903   13.4889 H   0  0  0  0  0  0  0  0  0  0  0  0
    6.2598    5.6182   13.4807 H   0  0  0  0  0  0  0  0  0  0  0  0
    4.1712    5.2428   17.1032 H   0  0  0  0  0  0  0  0  0  0  0  0
    4.8615    2.4813   15.7489 H   0  0  0  0  0  0  0  0  0  0  0  0
    1.2346    1.4012   13.7069 H   0  0  0  0  0  0  0  0  0  0  0  0
    1.8633    5.4669   14.9667 H   0  0  0  0  0  0  0  0  0  0  0  0
    4.2254    0.1004   15.4815 H   0  0  0  0  0  0  0  0  0  0  0  0
    2.7334   -0.3451   14.5832 H   0  0  0  0  0  0  0  0  0  0  0  0
    4.1741    0.2781   13.6839 H   0  0  0  0  0  0  0  0  0  0  0  0
   -0.6985    3.7840   14.5019 H   0  0  0  0  0  0  0  0  0  0  0  0
    0.0890    4.9048   13.3180 H   0  0  0  0  0  0  0  0  0  0  0  0
   -0.2137    3.1935   12.8618 H   0  0  0  0  0  0  0  0  0  0  0  0
  1  2  1  0
  1  3  2  0
  1  4  1  0
  4  5  1  0
  4  6  1  0
  4  7  1  6
  7  8  1  0
  8  9  4  0
  9 10  4  0
 10 11  4  0
  8 12  4  0
 11 13  4  0
 12 13  4  0
 11 14  1  0
 14 15  1  0
 15 16  2  0
 15 17  1  0
 17 18  1  0
 18 19  4  0
 19 20  4  0
 20 21  4  0
 18 22  4  0
 21 23  4  0
 22 23  4  0
 20 24  1  0
 23 25  1  0
  2 26  1  0
  5 27  1  0
  5 28  1  0
  5 29  1  0
  6 30  1  0
  6 31  1  0
  6 32  1  0
  9 33  1  0
 10 34  1  0
 12 35  1  0
 13 36  1  0
 14 37  1  0
 14 38  1  0
 17 39  1  0
 19 40  1  0
 21 41  1  0
 22 42  1  0
 24 43  1  0
 24 44  1  0
 24 45  1  0
 25 46  1  0
 25 47  1  0
 25 48  1  0
M  END
