8DHG_T78_A_403
     RDKit          3D

 35 37  0  0  0  0  0  0  0  0999 V2000
   33.6969  -20.5827   24.2990 C   0  0  0  0  0  0  0  0  0  0  0  0
   33.3462  -21.9691   23.8325 C   0  0  0  0  0  0  0  0  0  0  0  0
   30.8812  -22.2601   23.6852 C   0  0  0  0  0  0  0  0  0  0  0  0
   31.9725  -21.9479   21.7783 C   0  0  0  0  0  0  0  0  0  0  0  0
   28.6605  -22.4786   22.7432 C   0  0  0  0  0  0  0  0  0  0  0  0
   26.0284  -22.2760   20.3778 O   0  0  0  0  0  0  0  0  0  0  0  0
   26.7743  -22.0540   19.2725 C   0  0  1  0  0  0  0  0  0  0  0  0
   27.2523  -23.4023   18.6622 C   0  0  0  0  0  0  0  0  0  0  0  0
   25.9885  -21.3874   18.1227 C   0  0  2  0  0  0  0  0  0  0  0  0
   26.5987  -22.9496   23.8251 C   0  0  0  0  0  0  0  0  0  0  0  0
   27.8741  -22.7921   23.8084 C   0  0  0  0  0  0  0  0  0  0  0  0
   21.9633  -23.3247   25.2163 C   0  0  0  0  0  0  0  0  0  0  0  0
   22.9748  -22.9700   26.2592 C   0  0  0  0  0  0  0  0  0  0  0  0
   20.5911  -23.1034   25.4422 C   0  0  0  0  0  0  0  0  0  0  0  0
   19.7539  -23.4408   24.4174 C   0  0  0  0  0  0  0  0  0  0  0  0
   21.4711  -24.1819   22.9905 C   0  0  0  0  0  0  0  0  0  0  0  0
   32.0835  -22.0538   23.1308 N   0  0  0  0  0  0  0  0  0  0  0  0
   30.7007  -22.3929   24.9187 O   0  0  0  0  0  0  0  0  0  0  0  0
   30.0161  -22.2828   22.6584 N   0  0  0  0  0  0  0  0  0  0  0  0
   30.6689  -22.0950   21.5025 N   0  0  0  0  0  0  0  0  0  0  0  0
   33.0469  -21.7174   20.7852 C   0  0  0  0  0  0  0  0  0  0  0  0
   32.5324  -21.4395   19.5212 O   0  0  0  0  0  0  0  0  0  0  0  0
   27.8932  -22.3378   21.6200 N   0  0  0  0  0  0  0  0  0  0  0  0
   26.6019  -22.5142   21.7319 C   0  0  0  0  0  0  0  0  0  0  0  0
   24.7883  -22.0476   17.9059 F   0  0  0  0  0  0  0  0  0  0  0  0
   26.7666  -21.3773   17.0185 F   0  0  0  0  0  0  0  0  0  0  0  0
   25.7129  -20.0784   18.5297 F   0  0  0  0  0  0  0  0  0  0  0  0
   25.5774  -22.7951   22.4819 C   0  0  0  0  0  0  0  0  0  0  0  0
   28.5950  -22.9403   25.0075 F   0  0  0  0  0  0  0  0  0  0  0  0
   24.4955  -23.0916   23.2745 C   0  0  0  0  0  0  0  0  0  0  0  0
   23.9434  -21.9774   23.8329 O   0  0  0  0  0  0  0  0  0  0  0  0
   23.7402  -24.1722   23.7140 N   0  0  0  0  0  0  0  0  0  0  0  0
   22.3658  -23.8458   24.0248 C   0  0  0  0  0  0  0  0  0  0  0  0
   20.1380  -23.9555   23.2382 N   0  0  0  0  0  0  0  0  0  0  0  0
   22.0180  -24.8522   21.4795 Cl  0  0  0  0  0  0  0  0  0  0  0  0
  1  2  1  1
  7  6  1  1
  8  7  1  1
  7  9  1  0
 10 11  2  0
  5 11  1  0
 13 12  1  6
 12 14  2  0
 14 15  1  0
  3 17  1  0
  2 17  1  6
  4 17  1  0
  3 18  2  0
  3 19  1  0
  5 19  1  0
 19 20  1  0
  4 20  2  0
  4 21  1  0
 21 22  1  1
  5 23  2  0
 23 24  1  0
  6 24  1  0
  9 25  1  6
  9 26  1  0
  9 27  1  0
 10 28  1  0
 24 28  2  0
 11 29  1  0
 28 30  1  0
 30 31  2  0
 30 32  1  0
 12 33  1  0
 32 33  1  0
 16 33  2  0
 15 34  2  0
 16 34  1  0
 16 35  1  0
M  END
$$$$
