7P2I_MFU_B_101
     RDKit          3D

 12 12  0  0  0  0  0  0  0  0999 V2000
   17.3212   14.4551   35.0713 C   0  0  2  0  0  0  0  0  0  0  0  0
   16.9279   15.8991   34.8279 C   0  0  2  0  0  0  0  0  0  0  0  0
   15.4488   15.9629   35.1222 C   0  0  1  0  0  0  0  0  0  0  0  0
   15.2337   15.6957   36.5764 C   0  0  1  0  0  0  0  0  0  0  0  0
   15.8222   14.3067   36.8519 C   0  0  2  0  0  0  0  0  0  0  0  0
   15.8556   14.1003   38.3612 C   0  0  0  0  0  0  0  0  0  0  0  0
   16.4870   13.6619   34.2901 O   0  0  0  0  0  0  0  0  0  0  0  0
   17.2514   16.3609   33.5767 O   0  0  0  0  0  0  0  0  0  0  0  0
   14.8142   17.0825   34.6465 O   0  0  0  0  0  0  0  0  0  0  0  0
   15.8476   16.5915   37.4283 O   0  0  0  0  0  0  0  0  0  0  0  0
   17.1313   14.2335   36.4305 O   0  0  0  0  0  0  0  0  0  0  0  0
   16.9353   12.3408   34.2579 C   0  0  0  0  0  0  0  0  0  0  0  0
  1  2  1  0
  2  3  1  0
  3  4  1  0
  4  5  1  0
  6  5  1  6
  1  7  1  6
  2  8  1  6
  3  9  1  1
  4 10  1  1
  1 11  1  0
  5 11  1  1
 12  7  1  6
M  END
$$$$
