7WQQ_5Z6_A_501
     RDKit          3D

 55 56  0  0  0  0  0  0  0  0999 V2000
   33.9132   -1.8155   14.1700 C   0  0  0  0  0  0  0  0  0  0  0  0
   34.3946    0.2361   12.0116 C   0  0  0  0  0  0  0  0  0  0  0  0
   33.6422    1.2198    9.9843 C   0  0  0  0  0  0  0  0  0  0  0  0
   32.5491   -0.7343   10.8038 C   0  0  0  0  0  0  0  0  0  0  0  0
   32.0520   -4.9754   15.3547 C   0  0  0  0  0  0  0  0  0  0  0  0
   30.9833   -5.7468   14.9790 C   0  0  0  0  0  0  0  0  0  0  0  0
   30.7668   -8.2088   15.3838 C   0  0  0  0  0  0  0  0  0  0  0  0
   29.1167   -6.5238   16.3995 C   0  0  0  0  0  0  0  0  0  0  0  0
   28.5558   -4.0084   11.7229 C   0  0  0  0  0  0  0  0  0  0  0  0
   30.0611   -4.2244   11.5927 C   0  0  2  0  0  0  0  0  0  0  0  0
   30.6517   -2.9451   10.9761 C   0  0  0  0  0  0  0  0  0  0  0  0
   30.3054   -5.4075   10.6577 C   0  0  0  0  0  0  0  0  0  0  0  0
   30.7252   -4.5041   12.9525 C   0  0  0  0  0  0  0  0  0  0  0  0
   31.8040   -3.7459   13.3260 C   0  0  0  0  0  0  0  0  0  0  0  0
   32.4708   -3.9662   14.5018 C   0  0  0  0  0  0  0  0  0  0  0  0
   33.6377   -3.1013   14.9401 C   0  0  0  0  0  0  0  0  0  0  0  0
   33.2290   -1.9032   12.8559 C   0  0  0  0  0  0  0  0  0  0  0  0
   33.4226   -0.7398   11.8629 C   0  0  0  0  0  0  0  0  0  0  0  0
   34.5204    1.2247   11.0215 C   0  0  0  0  0  0  0  0  0  0  0  0
   33.7914    2.2789    8.8925 C   0  0  0  0  0  0  0  0  0  0  0  0
   32.6719    0.2377    9.8181 C   0  0  0  0  0  0  0  0  0  0  0  0
   30.5358   -6.8052   15.9550 C   0  0  2  0  0  0  0  0  0  0  0  0
   31.4695   -6.6380   17.1572 C   0  0  0  0  0  0  0  0  0  0  0  0
   30.3144   -5.5402   13.7909 C   0  0  0  0  0  0  0  0  0  0  0  0
   34.2634   -3.3494   15.9171 O   0  0  0  0  0  0  0  0  0  0  0  0
   32.8277    3.0513    8.6654 O   0  0  0  0  0  0  0  0  0  0  0  0
   34.8480    2.2464    8.2088 O   0  0  0  0  0  0  0  0  0  0  0  0
   34.4788   -1.0198   14.5050 H   0  0  0  0  0  0  0  0  0  0  0  0
   35.0157    0.2369   12.8358 H   0  0  0  0  0  0  0  0  0  0  0  0
   31.8059   -1.4475   10.7400 H   0  0  0  0  0  0  0  0  0  0  0  0
   32.5337   -5.1421   16.2520 H   0  0  0  0  0  0  0  0  0  0  0  0
   30.1277   -8.3596   14.5390 H   0  0  0  0  0  0  0  0  0  0  0  0
   30.5457   -8.9397   16.1333 H   0  0  0  0  0  0  0  0  0  0  0  0
   31.7882   -8.3067   15.0803 H   0  0  0  0  0  0  0  0  0  0  0  0
   28.4533   -6.6373   15.5676 H   0  0  0  0  0  0  0  0  0  0  0  0
   29.0519   -5.5233   16.7735 H   0  0  0  0  0  0  0  0  0  0  0  0
   28.8417   -7.2117   17.1715 H   0  0  0  0  0  0  0  0  0  0  0  0
   28.1378   -3.8180   10.7565 H   0  0  0  0  0  0  0  0  0  0  0  0
   28.3695   -3.1716   12.3633 H   0  0  0  0  0  0  0  0  0  0  0  0
   28.1046   -4.8843   12.1404 H   0  0  0  0  0  0  0  0  0  0  0  0
   30.1859   -2.7565   10.0315 H   0  0  0  0  0  0  0  0  0  0  0  0
   31.7051   -3.0702   10.8358 H   0  0  0  0  0  0  0  0  0  0  0  0
   30.4750   -2.1185   11.6322 H   0  0  0  0  0  0  0  0  0  0  0  0
   29.8445   -5.2152    9.7114 H   0  0  0  0  0  0  0  0  0  0  0  0
   29.8848   -6.2932   11.0859 H   0  0  0  0  0  0  0  0  0  0  0  0
   31.3580   -5.5425   10.5209 H   0  0  0  0  0  0  0  0  0  0  0  0
   32.1231   -2.9872   12.7034 H   0  0  0  0  0  0  0  0  0  0  0  0
   32.6423   -2.7171   12.6145 H   0  0  0  0  0  0  0  0  0  0  0  0
   35.2632    1.9387   11.0804 H   0  0  0  0  0  0  0  0  0  0  0  0
   32.0606    0.2308    8.9867 H   0  0  0  0  0  0  0  0  0  0  0  0
   31.2185   -7.3591   17.9068 H   0  0  0  0  0  0  0  0  0  0  0  0
   31.3600   -5.6525   17.5595 H   0  0  0  0  0  0  0  0  0  0  0  0
   32.4824   -6.7854   16.8454 H   0  0  0  0  0  0  0  0  0  0  0  0
   29.5206   -6.1439   13.5258 H   0  0  0  0  0  0  0  0  0  0  0  0
   35.5315    1.6453    8.4310 H   0  0  0  0  0  0  0  0  0  0  0  0
  5  6  4  0
 10  9  1  1
 10 11  1  0
 10 12  1  0
 10 13  1  0
 13 14  4  0
  5 15  4  0
 14 15  4  0
 15 16  1  0
  1 16  1  0
  1 17  2  3
 17 18  1  0
  4 18  4  0
  2 18  4  0
  2 19  4  0
  3 19  4  0
  3 20  1  0
  4 21  4  0
  3 21  4  0
 22  7  1  6
  8 22  1  0
  6 22  1  0
 22 23  1  0
  6 24  4  0
 13 24  4  0
 16 25  2  0
 20 26  2  0
 20 27  1  0
  1 28  1  0
  2 29  1  0
  4 30  1  0
  5 31  1  0
  7 32  1  0
  7 33  1  0
  7 34  1  0
  8 35  1  0
  8 36  1  0
  8 37  1  0
  9 38  1  0
  9 39  1  0
  9 40  1  0
 11 41  1  0
 11 42  1  0
 11 43  1  0
 12 44  1  0
 12 45  1  0
 12 46  1  0
 14 47  1  0
 17 48  1  0
 19 49  1  0
 21 50  1  0
 23 51  1  0
 23 52  1  0
 23 53  1  0
 24 54  1  0
 27 55  1  0
M  END
