6YMS_OZH_E_409
     RDKit          3D

 35 36  0  0  0  0  0  0  0  0999 V2000
   35.8328   35.4040   -8.1469 O   0  0  0  0  0  0  0  0  0  0  0  0
   36.6463   42.6228   -2.3728 O   0  0  0  0  0  0  0  0  0  0  0  0
   31.2037   35.9506  -10.2392 C   0  0  0  0  0  0  0  0  0  0  0  0
   32.3726   36.4519  -11.0302 C   0  0  2  0  0  0  0  0  0  0  0  0
   32.2858   35.7864  -12.4230 C   0  0  0  0  0  0  0  0  0  0  0  0
   35.6716   40.3201   -5.0625 C   0  0  1  0  0  0  0  0  0  0  0  0
   33.8789   38.1207   -9.2793 N   0  0  0  0  0  0  0  0  0  0  0  0
   33.7212   40.3965   -8.3096 C   0  0  0  0  0  0  0  0  0  0  0  0
   33.7303   38.9011   -8.1142 C   0  0  0  0  0  0  0  0  0  0  0  0
   34.1760   36.6636   -9.2021 C   0  0  1  0  0  0  0  0  0  0  0  0
   33.7087   36.1355  -10.5086 C   0  0  0  0  0  0  0  0  0  0  0  0
   33.6087   38.3989   -6.9508 O   0  0  0  0  0  0  0  0  0  0  0  0
   36.3584   39.1537   -5.7323 C   0  0  0  0  0  0  0  0  0  0  0  0
   36.9714   38.2394   -4.7409 C   0  0  0  0  0  0  0  0  0  0  0  0
   38.8050   37.5151   -3.3315 C   0  0  0  0  0  0  0  0  0  0  0  0
   38.2553   38.3844   -4.2588 C   0  0  0  0  0  0  0  0  0  0  0  0
   38.0595   36.4465   -2.8495 C   0  0  0  0  0  0  0  0  0  0  0  0
   37.9563   43.9287   -0.8578 C   0  0  0  0  0  0  0  0  0  0  0  0
   39.3182   43.7172   -0.6494 C   0  0  0  0  0  0  0  0  0  0  0  0
   37.1242   42.7292   -1.0658 C   0  0  0  0  0  0  0  0  0  0  0  0
   36.0684   41.4809   -2.8592 C   0  0  0  0  0  0  0  0  0  0  0  0
   36.2452   37.1566   -4.2389 C   0  0  0  0  0  0  0  0  0  0  0  0
   36.7731   36.2839   -3.3190 C   0  0  0  0  0  0  0  0  0  0  0  0
   35.5657   36.4737   -8.8120 C   0  0  0  0  0  0  0  0  0  0  0  0
   36.0236   41.7934   -7.2821 O   0  0  0  0  0  0  0  0  0  0  0  0
   40.2052   44.7559   -0.4587 C   0  0  0  0  0  0  0  0  0  0  0  0
   39.7263   46.0481   -0.4750 C   0  0  0  0  0  0  0  0  0  0  0  0
   38.3882   46.2882   -0.6786 C   0  0  0  0  0  0  0  0  0  0  0  0
   34.6749   42.9438   -5.4301 O   0  0  0  0  0  0  0  0  0  0  0  0
   35.1712   40.8142   -2.3133 O   0  0  0  0  0  0  0  0  0  0  0  0
   37.5220   45.2165   -0.8677 C   0  0  0  0  0  0  0  0  0  0  0  0
   33.5288   40.9635   -6.9874 N   0  0  0  0  0  0  0  0  0  0  0  0
   36.5425   40.9968   -4.1317 N   0  0  0  0  0  0  0  0  0  0  0  0
   36.6403   37.2881   -9.0664 O   0  0  0  0  0  0  0  0  0  0  0  0
   34.9736   41.4869   -6.2137 P   0  0  2  0  0  5  0  0  0  0  0  0
  4  3  1  1
  5  4  1  1
  7  9  1  0
  8  9  1  0
 10  7  1  6
 11 10  1  6
  4 11  1  0
  9 12  2  0
  6 13  1  0
 13 14  1  6
 14 16  1  0
 15 16  2  0
 15 17  1  0
 18 19  2  0
 20  2  1  6
 18 20  1  0
  2 21  1  0
 14 22  2  0
 22 23  1  0
 17 23  2  0
  1 24  2  0
 10 24  1  0
 19 26  1  0
 26 27  2  0
 27 28  1  0
 21 30  2  0
 18 31  1  0
 28 31  2  0
  8 32  1  6
  6 33  1  6
 21 33  1  0
 24 34  1  0
 25 35  2  0
 32 35  1  0
 35 29  1  1
  6 35  1  0
M  END
$$$$
