6ZC3_JOR_B_401
     RDKit          3D

 23 23  0  0  0  0  0  0  0  0999 V2000
   -6.7552    8.4946    2.8705 C   0  0  0  0  0  0  0  0  0  0  0  0
   -8.0641    9.6568    2.5539 S   0  0  2  0  0  6  0  0  0  0  0  0
   -9.1638    9.4536    3.5574 O   0  0  0  0  0  0  0  0  0  0  0  0
   -8.6215    9.4343    1.1757 O   0  0  0  0  0  0  0  0  0  0  0  0
   -7.4610   11.2767    2.6970 N   0  0  0  0  0  0  0  0  0  0  0  0
   -6.2326   11.7095    2.0892 C   0  0  0  0  0  0  0  0  0  0  0  0
   -5.5106   12.7734    2.6598 C   0  0  0  0  0  0  0  0  0  0  0  0
   -4.3688   13.2759    2.0353 C   0  0  0  0  0  0  0  0  0  0  0  0
   -3.9358   12.7315    0.8279 C   0  0  0  0  0  0  0  0  0  0  0  0
   -2.8292   13.2260    0.2204 F   0  0  0  0  0  0  0  0  0  0  0  0
   -4.6367   11.6733    0.2471 C   0  0  0  0  0  0  0  0  0  0  0  0
   -5.7813   11.1403    0.8700 C   0  0  0  0  0  0  0  0  0  0  0  0
   -6.4465    9.9674    0.2540 C   0  0  0  0  0  0  0  0  0  0  0  0
   -6.6233    8.9156    0.9267 O   0  0  0  0  0  0  0  0  0  0  0  0
   -6.9234   10.0263   -1.0526 O   0  0  0  0  0  0  0  0  0  0  0  0
   -7.1521    7.4608    2.8011 H   0  0  0  0  0  0  0  0  0  0  0  0
   -5.9442    8.6264    2.1260 H   0  0  0  0  0  0  0  0  0  0  0  0
   -6.3484    8.6648    3.8886 H   0  0  0  0  0  0  0  0  0  0  0  0
   -8.0498   11.9626    3.2188 H   0  0  0  0  0  0  0  0  0  0  0  0
   -5.8458   13.2385    3.5762 H   0  0  0  0  0  0  0  0  0  0  0  0
   -3.8266   14.0987    2.4835 H   0  0  0  0  0  0  0  0  0  0  0  0
   -4.2693   11.2537   -0.6815 H   0  0  0  0  0  0  0  0  0  0  0  0
   -7.3905    9.2317   -1.4727 H   0  0  0  0  0  0  0  0  0  0  0  0
  1  2  1  0
  2  3  2  0
  2  4  2  0
  2  5  1  1
  5  6  1  0
  6  7  4  0
  7  8  4  0
  8  9  4  0
  9 10  1  0
  9 11  4  0
 11 12  4  0
  6 12  4  0
 12 13  1  0
 13 14  2  0
 13 15  1  0
  1 16  1  0
  1 17  1  0
  1 18  1  0
  5 19  1  0
  7 20  1  0
  8 21  1  0
 11 22  1  0
 15 23  1  0
M  END
