@<TRIPOS>MOLECULE
1JLA_TNK_A_999
 51 53 0 0 0
SMALL
GASTEIGER

@<TRIPOS>ATOM
      1 C          -1.4185   -0.6783    2.0711 C.ar    1  UNL1       -0.0416
      2 C          -2.5342   -1.3682    2.5765 C.ar    1  UNL1       -0.0582
      3 C          -2.7089   -1.5274    3.9541 C.ar    1  UNL1       -0.0615
      4 C          -1.7685   -1.0055    4.8441 C.ar    1  UNL1       -0.0617
      5 C          -0.6503   -0.3254    4.3578 C.ar    1  UNL1       -0.0615
      6 C          -0.4701   -0.1631    2.9810 C.ar    1  UNL1       -0.0582
      7 C          -0.1514    0.3731    0.1032 C.ar    1  UNL1        0.0385
      8 N           1.1461   -0.1127    0.0210 N.ar    1  UNL1       -0.2734
      9 C           2.1500    0.6852   -0.4652 C.ar    1  UNL1        0.3313
     10 O           3.3326    0.2495   -0.5528 O.2     1  UNL1       -0.2464
     11 N           1.8944    1.9510   -0.8636 N.ar    1  UNL1       -0.2746
     12 C           0.6599    2.4915   -0.7669 C.ar    1  UNL1        0.2576
     13 O           0.4892    3.6777   -1.1625 O.2     1  UNL1       -0.2674
     14 C          -0.4140    1.7423   -0.2388 C.ar    1  UNL1        0.0394
     15 C          -1.2763   -0.5484    0.5662 C.3     1  UNL1        0.0136
     16 C          -1.7842    2.4441   -0.1248 C.3     1  UNL1       -0.0147
     17 C          -2.6913    2.1454   -1.3261 C.3     1  UNL1       -0.0584
     18 C          -2.5018    2.2739    1.2251 C.3     1  UNL1       -0.0584
     19 C           1.5267   -1.4811    0.4544 C.3     1  UNL1        0.1289
     20 O           2.0036   -2.2425   -0.6387 O.3     1  UNL1       -0.3546
     21 C           0.9263   -2.6976   -1.4278 C.3     1  UNL1        0.0749
     22 C           1.4757   -3.4452   -2.6074 C.ar    1  UNL1       -0.0219
     23 C           1.6641   -4.8360   -2.5435 C.ar    1  UNL1       -0.0564
     24 C           2.2118   -5.5227   -3.6318 C.ar    1  UNL1       -0.0614
     25 C           2.5861   -4.8254   -4.7839 C.ar    1  UNL1       -0.0617
     26 C           2.4181   -3.4393   -4.8477 C.ar    1  UNL1       -0.0614
     27 C           1.8707   -2.7489   -3.7618 C.ar    1  UNL1       -0.0564
     28 H          -3.2723   -1.7820    1.9003 H       1  UNL1        0.0620
     29 H          -3.5740   -2.0571    4.3316 H       1  UNL1        0.0618
     30 H          -1.9051   -1.1297    5.9106 H       1  UNL1        0.0618
     31 H           0.0791    0.0767    5.0490 H       1  UNL1        0.0618
     32 H           0.4067    0.3696    2.6399 H       1  UNL1        0.0620
     33 H           2.6758    2.5311   -1.2479 H       1  UNL1        0.1734
     34 H          -1.1527   -1.5570    0.1283 H       1  UNL1        0.0376
     35 H          -2.2407   -0.2475    0.1343 H       1  UNL1        0.0376
     36 H          -1.6142    3.5419   -0.1684 H       1  UNL1        0.0346
     37 H          -3.6262    2.7413   -1.2520 H       1  UNL1        0.0235
     38 H          -2.1746    2.4337   -2.2664 H       1  UNL1        0.0235
     39 H          -2.9667    1.0771   -1.3992 H       1  UNL1        0.0235
     40 H          -3.1471    1.3759    1.2591 H       1  UNL1        0.0235
     41 H          -1.7662    2.2483    2.0562 H       1  UNL1        0.0235
     42 H          -3.1748    3.1409    1.4013 H       1  UNL1        0.0235
     43 H           2.3551   -1.3966    1.1905 H       1  UNL1        0.0801
     44 H           0.7475   -2.0228    1.0262 H       1  UNL1        0.0801
     45 H           0.3155   -1.8449   -1.8021 H       1  UNL1        0.0611
     46 H           0.2652   -3.3730   -0.8381 H       1  UNL1        0.0611
     47 H           1.3880   -5.3873   -1.6531 H       1  UNL1        0.0621
     48 H           2.3498   -6.5949   -3.5805 H       1  UNL1        0.0618
     49 H           3.0112   -5.3581   -5.6246 H       1  UNL1        0.0618
     50 H           2.7158   -2.8992   -5.7372 H       1  UNL1        0.0618
     51 H           1.7556   -1.6733   -3.8196 H       1  UNL1        0.0621
@<TRIPOS>BOND
     1     1     2   ar
     2     2     3   ar
     3     3     4   ar
     4     4     5   ar
     5     1     6   ar
     6     5     6   ar
     7     7     8   ar
     8     8     9   ar
     9     9    10    2
    10     9    11   ar
    11    11    12   ar
    12    12    13    2
    13     7    14   ar
    14    12    14   ar
    15     1    15    1
    16     7    15    1
    17    14    16    1
    18    16    17    1
    19    16    18    1
    20     8    19    1
    21    19    20    1
    22    20    21    1
    23    21    22    1
    24    22    23   ar
    25    23    24   ar
    26    24    25   ar
    27    25    26   ar
    28    22    27   ar
    29    26    27   ar
    30     2    28    1
    31     3    29    1
    32     4    30    1
    33     5    31    1
    34     6    32    1
    35    11    33    1
    36    15    34    1
    37    15    35    1
    38    16    36    1
    39    17    37    1
    40    17    38    1
    41    17    39    1
    42    18    40    1
    43    18    41    1
    44    18    42    1
    45    19    43    1
    46    19    44    1
    47    21    45    1
    48    21    46    1
    49    23    47    1
    50    24    48    1
    51    25    49    1
    52    26    50    1
    53    27    51    1
