1JLA_TNK_A_999
     RDKit          3D

 51 53  0  0  0  0  0  0  0  0999 V2000
   -1.4185   -0.6783    2.0711 C   0  0  0  0  0  0  0  0  0  0  0  0
   -2.5342   -1.3682    2.5765 C   0  0  0  0  0  0  0  0  0  0  0  0
   -2.7089   -1.5274    3.9541 C   0  0  0  0  0  0  0  0  0  0  0  0
   -1.7685   -1.0055    4.8441 C   0  0  0  0  0  0  0  0  0  0  0  0
   -0.6503   -0.3254    4.3578 C   0  0  0  0  0  0  0  0  0  0  0  0
   -0.4701   -0.1631    2.9810 C   0  0  0  0  0  0  0  0  0  0  0  0
   -0.1514    0.3731    0.1032 C   0  0  0  0  0  0  0  0  0  0  0  0
    1.1461   -0.1127    0.0210 N   0  0  0  0  0  0  0  0  0  0  0  0
    2.1500    0.6852   -0.4652 C   0  0  0  0  0  0  0  0  0  0  0  0
    3.3326    0.2495   -0.5528 O   0  0  0  0  0  0  0  0  0  0  0  0
    1.8944    1.9510   -0.8636 N   0  0  0  0  0  0  0  0  0  0  0  0
    0.6599    2.4915   -0.7669 C   0  0  0  0  0  0  0  0  0  0  0  0
    0.4892    3.6777   -1.1625 O   0  0  0  0  0  0  0  0  0  0  0  0
   -0.4140    1.7423   -0.2388 C   0  0  0  0  0  0  0  0  0  0  0  0
   -1.2763   -0.5484    0.5662 C   0  0  0  0  0  0  0  0  0  0  0  0
   -1.7842    2.4441   -0.1248 C   0  0  0  0  0  0  0  0  0  0  0  0
   -2.6913    2.1454   -1.3261 C   0  0  0  0  0  0  0  0  0  0  0  0
   -2.5018    2.2739    1.2251 C   0  0  0  0  0  0  0  0  0  0  0  0
    1.5267   -1.4811    0.4544 C   0  0  0  0  0  0  0  0  0  0  0  0
    2.0036   -2.2425   -0.6387 O   0  0  0  0  0  0  0  0  0  0  0  0
    0.9263   -2.6976   -1.4278 C   0  0  0  0  0  0  0  0  0  0  0  0
    1.4757   -3.4452   -2.6074 C   0  0  0  0  0  0  0  0  0  0  0  0
    1.6641   -4.8360   -2.5435 C   0  0  0  0  0  0  0  0  0  0  0  0
    2.2118   -5.5227   -3.6318 C   0  0  0  0  0  0  0  0  0  0  0  0
    2.5861   -4.8254   -4.7839 C   0  0  0  0  0  0  0  0  0  0  0  0
    2.4181   -3.4393   -4.8477 C   0  0  0  0  0  0  0  0  0  0  0  0
    1.8707   -2.7489   -3.7618 C   0  0  0  0  0  0  0  0  0  0  0  0
   -3.2723   -1.7820    1.9003 H   0  0  0  0  0  0  0  0  0  0  0  0
   -3.5740   -2.0571    4.3316 H   0  0  0  0  0  0  0  0  0  0  0  0
   -1.9051   -1.1297    5.9106 H   0  0  0  0  0  0  0  0  0  0  0  0
    0.0791    0.0767    5.0490 H   0  0  0  0  0  0  0  0  0  0  0  0
    0.4067    0.3696    2.6399 H   0  0  0  0  0  0  0  0  0  0  0  0
    2.6758    2.5311   -1.2479 H   0  0  0  0  0  0  0  0  0  0  0  0
   -1.1527   -1.5570    0.1283 H   0  0  0  0  0  0  0  0  0  0  0  0
   -2.2407   -0.2475    0.1343 H   0  0  0  0  0  0  0  0  0  0  0  0
   -1.6142    3.5419   -0.1684 H   0  0  0  0  0  0  0  0  0  0  0  0
   -3.6262    2.7413   -1.2520 H   0  0  0  0  0  0  0  0  0  0  0  0
   -2.1746    2.4337   -2.2664 H   0  0  0  0  0  0  0  0  0  0  0  0
   -2.9667    1.0771   -1.3992 H   0  0  0  0  0  0  0  0  0  0  0  0
   -3.1471    1.3759    1.2591 H   0  0  0  0  0  0  0  0  0  0  0  0
   -1.7662    2.2483    2.0562 H   0  0  0  0  0  0  0  0  0  0  0  0
   -3.1748    3.1409    1.4013 H   0  0  0  0  0  0  0  0  0  0  0  0
    2.3551   -1.3966    1.1905 H   0  0  0  0  0  0  0  0  0  0  0  0
    0.7475   -2.0228    1.0262 H   0  0  0  0  0  0  0  0  0  0  0  0
    0.3155   -1.8449   -1.8021 H   0  0  0  0  0  0  0  0  0  0  0  0
    0.2652   -3.3730   -0.8381 H   0  0  0  0  0  0  0  0  0  0  0  0
    1.3880   -5.3873   -1.6531 H   0  0  0  0  0  0  0  0  0  0  0  0
    2.3498   -6.5949   -3.5805 H   0  0  0  0  0  0  0  0  0  0  0  0
    3.0112   -5.3581   -5.6246 H   0  0  0  0  0  0  0  0  0  0  0  0
    2.7158   -2.8992   -5.7372 H   0  0  0  0  0  0  0  0  0  0  0  0
    1.7556   -1.6733   -3.8196 H   0  0  0  0  0  0  0  0  0  0  0  0
  1  2  2  0
  2  3  1  0
  3  4  2  0
  4  5  1  0
  1  6  1  0
  5  6  2  0
  7  8  1  0
  8  9  1  0
  9 10  2  0
  9 11  1  0
 11 12  1  0
 12 13  2  0
  7 14  2  0
 12 14  1  0
  1 15  1  0
  7 15  1  0
 14 16  1  0
 16 17  1  0
 16 18  1  0
  8 19  1  0
 19 20  1  0
 20 21  1  0
 21 22  1  0
 22 23  2  0
 23 24  1  0
 24 25  2  0
 25 26  1  0
 22 27  1  0
 26 27  2  0
  2 28  1  0
  3 29  1  0
  4 30  1  0
  5 31  1  0
  6 32  1  0
 11 33  1  0
 15 34  1  0
 15 35  1  0
 16 36  1  0
 17 37  1  0
 17 38  1  0
 17 39  1  0
 18 40  1  0
 18 41  1  0
 18 42  1  0
 19 43  1  0
 19 44  1  0
 21 45  1  0
 21 46  1  0
 23 47  1  0
 24 48  1  0
 25 49  1  0
 26 50  1  0
 27 51  1  0
M  END
