7L5F_XNG_A_304
     RDKit          3D

 18 17  0  0  0  0  0  0  0  0999 V2000
   12.3221   36.6549   25.8386 C   0  0  0  0  0  0  0  0  0  0  0  0
   10.4734   39.5257   22.9686 C   0  0  0  0  0  0  0  0  0  0  0  0
   10.9816   40.9085   22.7355 C   0  0  0  0  0  0  0  0  0  0  0  0
   10.1951   41.6382   21.6696 C   0  0  0  0  0  0  0  0  0  0  0  0
   10.7173   43.0259   21.5350 C   0  0  0  0  0  0  0  0  0  0  0  0
   10.5068   43.5923   20.1382 C   0  0  0  0  0  0  0  0  0  0  0  0
   11.0826   45.0055   20.2033 C   0  0  0  0  0  0  0  0  0  0  0  0
   10.4853   45.8936   19.1389 C   0  0  0  0  0  0  0  0  0  0  0  0
   11.6016   46.7675   18.6181 C   0  0  0  0  0  0  0  0  0  0  0  0
   12.2921   35.4765   26.7823 C   0  0  0  0  0  0  0  0  0  0  0  0
   10.8340   35.1264   27.0031 C   0  0  0  0  0  0  0  0  0  0  0  0
   10.7479   33.9640   27.9285 C   0  0  0  0  0  0  0  0  0  0  0  0
   10.7142   37.3445   24.0074 C   0  0  0  0  0  0  0  0  0  0  0  0
   11.2695   38.6968   23.9198 C   0  0  0  0  0  0  0  0  0  0  0  0
   11.4568   36.3601   24.7183 N   0  0  0  0  0  0  0  0  0  0  0  0
    9.6354   36.9992   23.5011 O   0  0  0  0  0  0  0  0  0  0  0  0
   11.7837   33.4345   28.4344 O   0  0  0  0  0  0  0  0  0  0  0  0
    9.5211   33.4155   28.2720 O   0  0  0  0  0  0  0  0  0  0  0  0
  3  2  1  6
  4  3  1  1
  5  4  1  6
  6  5  1  1
  7  6  1  6
  7  8  1  0
  8  9  1  6
 10  1  1  1
 10 11  1  0
 11 12  1  6
  2 14  1  6
 14 13  1  1
 13 15  1  0
  1 15  1  1
 13 16  2  0
 12 17  2  0
 12 18  1  0
M  END
$$$$
