1SJ0_E4D_A_600
     RDKit          3D

 62 66  0  0  0  0  0  0  0  0999 V2000
   29.3217   -3.3381   23.5009 C   0  0  1  0  0  0  0  0  0  0  0  0
   30.2263   -2.3861   24.2851 C   0  0  2  0  0  0  0  0  0  0  0  0
   29.8205   -2.3566   25.6606 O   0  0  0  0  0  0  0  0  0  0  0  0
   28.5828   -2.0037   26.0477 C   0  0  0  0  0  0  0  0  0  0  0  0
   28.4410   -1.2982   27.2322 C   0  0  0  0  0  0  0  0  0  0  0  0
   27.2039   -0.8200   27.6408 C   0  0  0  0  0  0  0  0  0  0  0  0
   26.0545   -1.2605   26.9652 C   0  0  0  0  0  0  0  0  0  0  0  0
   24.8600   -0.8924   27.4420 O   0  0  0  0  0  0  0  0  0  0  0  0
   26.1947   -1.9786   25.7662 C   0  0  0  0  0  0  0  0  0  0  0  0
   27.4390   -2.3238   25.2641 C   0  0  0  0  0  0  0  0  0  0  0  0
   27.6198   -3.0080   23.9367 S   0  0  0  0  0  0  0  0  0  0  0  0
   29.7630   -3.3449   22.0560 C   0  0  0  0  0  0  0  0  0  0  0  0
   31.0412   -3.6799   21.6041 C   0  0  0  0  0  0  0  0  0  0  0  0
   31.3354   -3.6503   20.2342 C   0  0  0  0  0  0  0  0  0  0  0  0
   30.3448   -3.2717   19.3132 C   0  0  0  0  0  0  0  0  0  0  0  0
   30.6106   -3.2745   17.9932 O   0  0  0  0  0  0  0  0  0  0  0  0
   29.0540   -2.9500   19.7524 C   0  0  0  0  0  0  0  0  0  0  0  0
   28.7823   -2.9624   21.1270 C   0  0  0  0  0  0  0  0  0  0  0  0
   30.3244   -0.9481   23.7823 C   0  0  0  0  0  0  0  0  0  0  0  0
   31.4125   -0.6961   22.9381 C   0  0  0  0  0  0  0  0  0  0  0  0
   31.6510    0.5749   22.4105 C   0  0  0  0  0  0  0  0  0  0  0  0
   30.7481    1.6272   22.6958 C   0  0  0  0  0  0  0  0  0  0  0  0
   29.6982    1.4019   23.5688 C   0  0  0  0  0  0  0  0  0  0  0  0
   29.4493    0.0994   24.0801 C   0  0  0  0  0  0  0  0  0  0  0  0
   30.9256    2.8671   22.1691 O   0  0  0  0  0  0  0  0  0  0  0  0
   30.6821    3.2908   20.8164 C   0  0  0  0  0  0  0  0  0  0  0  0
   31.0373    2.2473   19.7332 C   0  0  0  0  0  0  0  0  0  0  0  0
   30.4142    0.9039   19.6746 N   0  0  0  0  0  0  0  0  0  0  0  0
   30.9946   -0.1525   20.4865 C   0  0  0  0  0  0  0  0  0  0  0  0
   30.0683   -1.3676   20.7141 C   0  0  0  0  0  0  0  0  0  0  0  0
   29.4812   -1.9038   19.3916 C   0  0  0  0  0  0  0  0  0  0  0  0
   28.8355   -0.7025   18.6525 C   0  0  0  0  0  0  0  0  0  0  0  0
   29.8758    0.4232   18.3985 C   0  0  0  0  0  0  0  0  0  0  0  0
   29.4101   -4.3728   23.7587 H   0  0  0  0  0  0  0  0  0  0  0  0
   31.2043   -2.7968   24.1441 H   0  0  0  0  0  0  0  0  0  0  0  0
   29.2706   -1.1253   27.8212 H   0  0  0  0  0  0  0  0  0  0  0  0
   27.1301   -0.1539   28.4257 H   0  0  0  0  0  0  0  0  0  0  0  0
   24.8036   -0.4138   28.2456 H   0  0  0  0  0  0  0  0  0  0  0  0
   25.3482   -2.2566   25.2454 H   0  0  0  0  0  0  0  0  0  0  0  0
   31.7717   -3.9502   22.2812 H   0  0  0  0  0  0  0  0  0  0  0  0
   32.2785   -3.9063   19.9025 H   0  0  0  0  0  0  0  0  0  0  0  0
   31.4706   -3.4883   17.6890 H   0  0  0  0  0  0  0  0  0  0  0  0
   28.3149   -2.7076   19.0742 H   0  0  0  0  0  0  0  0  0  0  0  0
   27.8462   -2.6860   21.4619 H   0  0  0  0  0  0  0  0  0  0  0  0
   32.0540   -1.4685   22.6998 H   0  0  0  0  0  0  0  0  0  0  0  0
   32.4784    0.7455   21.8178 H   0  0  0  0  0  0  0  0  0  0  0  0
   29.0905    2.1868   23.8510 H   0  0  0  0  0  0  0  0  0  0  0  0
   28.6216   -0.0727   24.6719 H   0  0  0  0  0  0  0  0  0  0  0  0
   29.6422    3.5252   20.7237 H   0  0  0  0  0  0  0  0  0  0  0  0
   31.3228    4.1305   20.6453 H   0  0  0  0  0  0  0  0  0  0  0  0
   30.8241    2.7128   18.7936 H   0  0  0  0  0  0  0  0  0  0  0  0
   32.0471    2.0051   19.9907 H   0  0  0  0  0  0  0  0  0  0  0  0
   31.8840   -0.4966   20.0012 H   0  0  0  0  0  0  0  0  0  0  0  0
   31.1817    0.2725   21.4505 H   0  0  0  0  0  0  0  0  0  0  0  0
   30.6307   -2.1474   21.1835 H   0  0  0  0  0  0  0  0  0  0  0  0
   29.2543   -1.0509   21.3323 H   0  0  0  0  0  0  0  0  0  0  0  0
   30.2587   -2.3280   18.7913 H   0  0  0  0  0  0  0  0  0  0  0  0
   28.7550   -2.6664   19.5814 H   0  0  0  0  0  0  0  0  0  0  0  0
   28.4472   -1.0377   17.7135 H   0  0  0  0  0  0  0  0  0  0  0  0
   28.0514   -0.3086   19.2649 H   0  0  0  0  0  0  0  0  0  0  0  0
   29.4026    1.2341   17.8854 H   0  0  0  0  0  0  0  0  0  0  0  0
   30.6756    0.0351   17.8031 H   0  0  0  0  0  0  0  0  0  0  0  0
  1  2  1  0
  2  3  1  0
  3  4  1  0
  4  5  2  0
  5  6  1  0
  6  7  2  0
  7  8  1  0
  7  9  1  0
  4 10  1  0
  9 10  2  0
  1 11  1  0
 10 11  1  0
  1 12  1  0
 12 13  2  0
 13 14  1  0
 14 15  2  0
 15 16  1  0
 15 17  1  0
 12 18  1  0
 17 18  2  0
  2 19  1  0
 19 20  2  0
 20 21  1  0
 21 22  2  0
 22 23  1  0
 19 24  1  0
 23 24  2  0
 22 25  1  0
 25 26  1  0
 26 27  1  0
 27 28  1  0
 28 29  1  0
 29 30  1  0
 30 31  1  0
 31 32  1  0
 28 33  1  0
 32 33  1  0
  1 34  1  6
  2 35  1  6
  5 36  1  0
  6 37  1  0
  8 38  1  0
  9 39  1  0
 13 40  1  0
 14 41  1  0
 16 42  1  0
 17 43  1  0
 18 44  1  0
 20 45  1  0
 21 46  1  0
 23 47  1  0
 24 48  1  0
 26 49  1  0
 26 50  1  0
 27 51  1  0
 27 52  1  0
 29 53  1  0
 29 54  1  0
 30 55  1  0
 30 56  1  0
 31 57  1  0
 31 58  1  0
 32 59  1  0
 32 60  1  0
 33 61  1  0
 33 62  1  0
M  END
