6Y7L_QMG_A_301
     RDKit          3D

 44 47  0  0  0  0  0  0  0  0999 V2000
  124.1106   -7.0949   36.8575 C   0  0  1  0  0  0  0  0  0  0  0  0
  124.4259   -2.0526   34.9094 C   0  0  0  0  0  0  0  0  0  0  0  0
  125.9059   -0.1216   34.8510 C   0  0  0  0  0  0  0  0  0  0  0  0
  130.9802   -2.6492   35.6031 C   0  0  0  0  0  0  0  0  0  0  0  0
  132.0095   -1.8138   36.0668 C   0  0  0  0  0  0  0  0  0  0  0  0
  130.4791    2.3082   37.1773 C   0  0  0  0  0  0  0  0  0  0  0  0
  129.8096    1.0924   36.6515 C   0  0  0  0  0  0  0  0  0  0  0  0
  128.4443    0.9976   36.3834 C   0  0  0  0  0  0  0  0  0  0  0  0
  128.2063   -0.2849   35.9061 C   0  0  0  0  0  0  0  0  0  0  0  0
  126.8993   -0.8703   35.5292 C   0  0  0  0  0  0  0  0  0  0  0  0
  126.6433   -2.2118   35.8616 C   0  0  0  0  0  0  0  0  0  0  0  0
  125.4081   -2.8108   35.5645 C   0  0  0  0  0  0  0  0  0  0  0  0
  125.1639   -4.2275   35.9286 C   0  0  0  0  0  0  0  0  0  0  0  0
  123.5454   -5.7188   37.1640 C   0  0  1  0  0  0  0  0  0  0  0  0
  124.7882   -6.2065   37.8893 C   0  0  2  0  0  0  0  0  0  0  0  0
  124.6710   -0.7234   34.5634 C   0  0  0  0  0  0  0  0  0  0  0  0
  126.1297    1.3067   34.4265 C   0  0  2  0  0  0  0  0  0  0  0  0
  129.4324   -0.9157   35.9187 C   0  0  0  0  0  0  0  0  0  0  0  0
  131.6967   -0.5043   36.4518 C   0  0  0  0  0  0  0  0  0  0  0  0
  129.6984    3.5622   37.4239 C   0  0  2  0  0  0  0  0  0  0  0  0
  123.8322   -4.7209   36.1379 N   0  0  0  0  0  0  0  0  0  0  0  0
  129.6999   -2.1888   35.5328 N   0  0  0  0  0  0  0  0  0  0  0  0
  130.4013   -0.0933   36.3597 N   0  0  0  0  0  0  0  0  0  0  0  0
  131.7154    2.3103   37.4151 O   0  0  0  0  0  0  0  0  0  0  0  0
  126.1446   -5.0094   36.0674 O   0  0  0  0  0  0  0  0  0  0  0  0
  123.5310   -7.9349   37.2948 H   0  0  0  0  0  0  0  0  0  0  0  0
  124.6703   -7.1851   35.9019 H   0  0  0  0  0  0  0  0  0  0  0  0
  123.4744   -2.4889   34.6364 H   0  0  0  0  0  0  0  0  0  0  0  0
  131.2029   -3.6634   35.2996 H   0  0  0  0  0  0  0  0  0  0  0  0
  133.0277   -2.1762   36.1250 H   0  0  0  0  0  0  0  0  0  0  0  0
  127.7012    1.7675   36.5418 H   0  0  0  0  0  0  0  0  0  0  0  0
  127.4009   -2.7829   36.3855 H   0  0  0  0  0  0  0  0  0  0  0  0
  122.6088   -5.6410   37.7556 H   0  0  0  0  0  0  0  0  0  0  0  0
  125.7497   -5.7669   37.5464 H   0  0  0  0  0  0  0  0  0  0  0  0
  124.6129   -6.5199   38.9402 H   0  0  0  0  0  0  0  0  0  0  0  0
  123.8956   -0.1657   34.0517 H   0  0  0  0  0  0  0  0  0  0  0  0
  126.1503    1.9632   35.3207 H   0  0  0  0  0  0  0  0  0  0  0  0
  125.3166    1.6555   33.7547 H   0  0  0  0  0  0  0  0  0  0  0  0
  127.0824    1.4070   33.8656 H   0  0  0  0  0  0  0  0  0  0  0  0
  132.4823    0.1426   36.8095 H   0  0  0  0  0  0  0  0  0  0  0  0
  128.9970    3.7389   36.5816 H   0  0  0  0  0  0  0  0  0  0  0  0
  130.3785    4.4362   37.5088 H   0  0  0  0  0  0  0  0  0  0  0  0
  129.1241    3.4675   38.3693 H   0  0  0  0  0  0  0  0  0  0  0  0
  123.0253   -4.2622   35.6594 H   0  0  0  0  0  0  0  0  0  0  0  0
  4  5  1  0
  6  7  1  0
  7  8  2  0
  8  9  1  0
  9 10  1  0
  3 10  1  0
 10 11  2  0
 11 12  1  0
  2 12  2  0
 12 13  1  0
  1 14  1  0
 14 15  1  0
  1 15  1  0
  3 16  2  0
  2 16  1  0
  3 17  1  0
  9 18  2  0
  5 19  2  0
  6 20  1  0
 14 21  1  0
 13 21  1  0
  4 22  2  0
 18 22  1  0
 19 23  1  0
 18 23  1  0
  7 23  1  0
  6 24  2  0
 13 25  2  0
  1 26  1  1
  1 27  1  0
  2 28  1  0
  4 29  1  0
  5 30  1  0
  8 31  1  0
 11 32  1  0
 14 33  1  1
 15 34  1  6
 15 35  1  0
 16 36  1  0
 17 37  1  1
 17 38  1  0
 17 39  1  0
 19 40  1  0
 20 41  1  6
 20 42  1  0
 20 43  1  0
 21 44  1  0
M  END
