7TH4_FFO_B_303
     RDKit          3D

 34 36  0  0  0  0  0  0  0  0999 V2000
   17.4416   -6.3165   -4.8196 N   0  0  0  0  0  0  0  0  0  0  0  0
   18.6204   -6.1496   -4.2616 C   0  0  0  0  0  0  0  0  0  0  0  0
   19.6175   -7.0285   -4.4545 N   0  0  0  0  0  0  0  0  0  0  0  0
   18.9279   -5.0022   -3.5656 N   0  0  0  0  0  0  0  0  0  0  0  0
   17.9963   -4.0309   -3.2807 C   0  0  0  0  0  0  0  0  0  0  0  0
   18.3854   -3.0025   -2.6724 O   0  0  0  0  0  0  0  0  0  0  0  0
   16.7105   -4.2581   -3.7736 C   0  0  0  0  0  0  0  0  0  0  0  0
   15.5930   -3.3956   -3.5673 N   0  0  0  0  0  0  0  0  0  0  0  0
   14.6300   -3.2573   -4.6806 C   0  0  2  0  0  0  0  0  0  0  0  0
   14.1618   -4.6520   -5.0838 C   0  0  0  0  0  0  0  0  0  0  0  0
   15.2743   -5.5885   -5.1749 N   0  0  0  0  0  0  0  0  0  0  0  0
   16.4741   -5.3959   -4.6067 C   0  0  0  0  0  0  0  0  0  0  0  0
   15.2587   -2.4961   -5.8391 C   0  0  0  0  0  0  0  0  0  0  0  0
   15.2557   -1.0623   -5.5646 N   0  0  0  0  0  0  0  0  0  0  0  0
   16.6238    1.7634   -8.2883 C   0  0  0  0  0  0  0  0  0  0  0  0
   16.4057    0.4435   -8.6740 C   0  0  0  0  0  0  0  0  0  0  0  0
   15.9286   -0.4729   -7.7744 C   0  0  0  0  0  0  0  0  0  0  0  0
   15.7106   -0.0938   -6.4502 C   0  0  0  0  0  0  0  0  0  0  0  0
   15.9150    1.2234   -6.0606 C   0  0  0  0  0  0  0  0  0  0  0  0
   16.3640    2.1402   -6.9796 C   0  0  0  0  0  0  0  0  0  0  0  0
   17.0927    2.8119   -9.2622 C   0  0  0  0  0  0  0  0  0  0  0  0
   17.7990    2.4869  -10.2077 O   0  0  0  0  0  0  0  0  0  0  0  0
   16.6816    4.0771   -9.0627 N   0  0  0  0  0  0  0  0  0  0  0  0
   15.7125    4.7156   -9.9421 C   0  0  1  0  0  0  0  0  0  0  0  0
   14.3225    4.0993   -9.7384 C   0  0  0  0  0  0  0  0  0  0  0  0
   14.0570    3.0027  -10.7558 C   0  0  0  0  0  0  0  0  0  0  0  0
   14.7721    1.6814  -10.5389 C   0  0  0  0  0  0  0  0  0  0  0  0
   16.0134    1.6532  -10.6962 O   0  0  0  0  0  0  0  0  0  0  0  0
   14.0855    0.6863  -10.1934 O   0  0  0  0  0  0  0  0  0  0  0  0
   15.7248    6.2390   -9.7452 C   0  0  0  0  0  0  0  0  0  0  0  0
   16.7240    6.7945   -9.1163 O   0  0  0  0  0  0  0  0  0  0  0  0
   14.7538    6.8236  -10.2438 O   0  0  0  0  0  0  0  0  0  0  0  0
   15.2568   -2.9991   -2.3181 C   0  0  0  0  0  0  0  0  0  0  0  0
   16.1063   -2.9056   -1.4045 O   0  0  0  0  0  0  0  0  0  0  0  0
  1  2  2  0
  2  3  1  0
  2  4  1  0
  4  5  1  0
  5  6  2  0
  5  7  1  0
  7  8  1  0
  8  9  1  0
  9 10  1  0
 10 11  1  0
  1 12  1  0
  7 12  2  0
 11 12  1  0
  9 13  1  6
 13 14  1  0
 15 16  2  0
 16 17  1  0
 14 18  1  0
 17 18  2  0
 18 19  1  0
 15 20  1  0
 19 20  2  0
 15 21  1  0
 21 22  2  0
 21 23  1  0
 23 24  1  0
 24 25  1  1
 25 26  1  0
 26 27  1  0
 27 28  2  0
 27 29  1  0
 24 30  1  0
 30 31  2  0
 30 32  1  0
  8 33  1  0
 33 34  2  0
M  END
