7TOM_5AD_A_605
     RDKit          3D

 31 33  0  0  0  0  0  0  0  0999 V2000
   17.1985   54.1755   27.4677 N   0  0  0  0  0  0  0  0  0  0  0  0
   17.3036   53.6210   28.6846 C   0  0  0  0  0  0  0  0  0  0  0  0
   17.8145   54.1469   29.8092 N   0  0  0  0  0  0  0  0  0  0  0  0
   18.2817   55.3924   29.5915 C   0  0  0  0  0  0  0  0  0  0  0  0
   18.9286   56.2167   30.4854 N   0  0  0  0  0  4  0  0  0  0  0  0
   19.2339   57.3554   29.7877 C   0  0  0  0  0  0  0  0  0  0  0  0
   18.8395   57.3388   28.5365 N   0  0  0  0  0  0  0  0  0  0  0  0
   18.2370   56.0947   28.3966 C   0  0  0  0  0  0  0  0  0  0  0  0
   17.6554   55.4391   27.2874 C   0  0  0  0  0  0  0  0  0  0  0  0
   17.5396   55.9996   26.0712 N   0  0  0  0  0  0  0  0  0  0  0  0
   19.2257   55.9472   31.8932 C   0  0  2  0  0  0  0  0  0  0  0  0
   18.4468   56.8126   32.8870 C   0  0  2  0  0  0  0  0  0  0  0  0
   19.3343   56.7041   34.1403 C   0  0  2  0  0  0  0  0  0  0  0  0
   20.7306   56.3741   33.5799 C   0  0  2  0  0  0  0  0  0  0  0  0
   21.8157   57.3820   33.9140 C   0  0  0  0  0  0  0  0  0  0  0  0
   20.5771   56.2632   32.1438 O   0  0  0  0  0  0  0  0  0  0  0  0
   17.1218   56.3216   33.0593 O   0  0  0  0  0  0  0  0  0  0  0  0
   18.9527   55.6589   35.0206 O   0  0  0  0  0  0  0  0  0  0  0  0
   16.9422   52.6579   28.7677 H   0  0  0  0  0  0  0  0  0  0  0  0
   19.7305   58.1559   30.2092 H   0  0  0  0  0  0  0  0  0  0  0  0
   17.1251   55.4952   25.3342 H   0  0  0  0  0  0  0  0  0  0  0  0
   17.8693   56.9144   25.9173 H   0  0  0  0  0  0  0  0  0  0  0  0
   18.9655   54.9192   32.0357 H   0  0  0  0  0  0  0  0  0  0  0  0
   18.2867   57.8282   32.5909 H   0  0  0  0  0  0  0  0  0  0  0  0
   19.2718   57.6066   34.7117 H   0  0  0  0  0  0  0  0  0  0  0  0
   21.0668   55.4687   34.0403 H   0  0  0  0  0  0  0  0  0  0  0  0
   21.5636   58.3313   33.4897 H   0  0  0  0  0  0  0  0  0  0  0  0
   21.8993   57.4771   34.9765 H   0  0  0  0  0  0  0  0  0  0  0  0
   22.7490   57.0479   33.5114 H   0  0  0  0  0  0  0  0  0  0  0  0
   17.1546   55.3915   33.3328 H   0  0  0  0  0  0  0  0  0  0  0  0
   18.9915   54.8108   34.5515 H   0  0  0  0  0  0  0  0  0  0  0  0
  1  2  4  0
  2  3  4  0
  3  4  4  0
  4  5  4  0
  5  6  4  0
  6  7  4  0
  4  8  4  0
  7  8  4  0
  1  9  4  0
  8  9  4  0
  9 10  1  0
 11  5  1  0
 11 12  1  0
 12 13  1  0
 13 14  1  0
 14 15  1  0
 11 16  1  0
 14 16  1  0
 12 17  1  0
 13 18  1  0
  2 19  1  0
  6 20  1  0
 10 21  1  0
 10 22  1  0
 11 23  1  6
 12 24  1  1
 13 25  1  6
 14 26  1  6
 15 27  1  0
 15 28  1  0
 15 29  1  0
 17 30  1  0
 18 31  1  0
M  CHG  1   5   1
M  END
