1JD0_AZM_B_2401
     RDKit          3D

 19 19  0  0  0  0  0  0  0  0999 V2000
   -4.6959    0.8367    1.2944 C   0  0  0  0  0  0  0  0  0  0  0  0
   -4.7924    3.0303    2.2591 C   0  0  0  0  0  0  0  0  0  0  0  0
   -4.1822    4.6709    4.1128 C   0  0  0  0  0  0  0  0  0  0  0  0
   -4.7871    4.7129    5.4788 C   0  0  0  0  0  0  0  0  0  0  0  0
   -3.2021   -1.5013    0.6495 N   0  0  0  0  0  0  0  0  0  0  0  0
   -4.1039    2.9864    1.0968 N   0  0  0  0  0  0  0  0  0  0  0  0
   -4.0488    1.7679    0.5617 N   0  0  0  0  0  0  0  0  0  0  0  0
   -4.9801    4.2485    2.9954 N   0  0  0  0  0  0  0  0  0  0  0  0
   -5.5499   -0.9915   -0.4397 O   0  0  0  0  0  0  0  0  0  0  0  0
   -5.5169   -1.6147    1.9270 O   0  0  0  0  0  0  0  0  0  0  0  0
   -2.9882    5.0417    3.9564 O   0  0  0  0  0  0  0  0  0  0  0  0
   -4.7929   -0.8557    0.8515 S   0  0  2  0  0  6  0  0  0  0  0  0
   -5.3830    1.5030    2.6780 S   0  0  0  0  0  0  0  0  0  0  0  0
   -5.3218    3.7615    5.6818 H   0  0  0  0  0  0  0  0  0  0  0  0
   -5.5060    5.5561    5.5388 H   0  0  0  0  0  0  0  0  0  0  0  0
   -4.0001    4.8512    6.2504 H   0  0  0  0  0  0  0  0  0  0  0  0
   -2.7141   -0.8975   -0.0494 H   0  0  0  0  0  0  0  0  0  0  0  0
   -2.7024   -1.3745    1.5581 H   0  0  0  0  0  0  0  0  0  0  0  0
   -5.7596    4.8740    2.6903 H   0  0  0  0  0  0  0  0  0  0  0  0
  3  4  1  0
  2  6  4  0
  1  7  4  0
  6  7  4  0
  2  8  1  0
  3  8  1  0
  3 11  2  0
  1 12  1  0
 12  5  1  6
  9 12  2  0
 10 12  2  0
  1 13  4  0
  2 13  4  0
  4 14  1  0
  4 15  1  0
  4 16  1  0
  5 17  1  0
  5 18  1  0
  8 19  1  0
M  END
