8FV9_80J_AAA_603
     RDKit          3D

 29 30  0  0  0  0  0  0  0  0999 V2000
  -20.0235   -1.0545    4.6109 C   0  0  2  0  0  0  0  0  0  0  0  0
  -21.3794   -3.0352    4.1469 C   0  0  0  0  0  0  0  0  0  0  0  0
  -20.4026   -0.2600    5.9061 C   0  0  1  0  0  0  0  0  0  0  0  0
  -19.4722    0.9378    5.8173 C   0  0  1  0  0  0  0  0  0  0  0  0
  -20.7123   -5.2063    4.5609 C   0  0  0  0  0  0  0  0  0  0  0  0
  -18.5536    0.6671    4.8575 C   0  0  1  0  0  0  0  0  0  0  0  0
  -19.5098   -4.7309    5.0749 C   0  0  0  0  0  0  0  0  0  0  0  0
  -17.1149    0.8615    5.2702 C   0  0  0  0  0  0  0  0  0  0  0  0
  -19.2932   -3.3504    5.0976 C   0  0  0  0  0  0  0  0  0  0  0  0
  -21.6925    0.0828    5.8406 F   0  0  0  0  0  0  0  0  0  0  0  0
  -20.2511   -2.5329    4.6432 N   0  0  0  0  0  0  0  0  0  0  0  0
  -21.6176   -4.3409    4.1094 N   0  0  0  0  0  0  0  0  0  0  0  0
  -20.9889   -6.6316    4.5065 N   0  0  0  0  0  0  0  0  0  0  0  0
  -14.2802   -0.0220    2.9254 O   0  0  0  0  0  0  0  0  0  0  0  0
  -15.3550   -2.4041    4.8389 O   0  0  0  0  0  0  0  0  0  0  0  0
  -10.9094   -1.5191    3.5731 O   0  0  0  0  0  0  0  0  0  0  0  0
  -22.2232   -2.2982    3.7338 O   0  0  0  0  0  0  0  0  0  0  0  0
  -13.9881    2.0339    4.2922 O   0  0  0  0  0  0  0  0  0  0  0  0
  -14.3002   -2.0744    7.0927 O   0  0  0  0  0  0  0  0  0  0  0  0
  -11.6591    0.0390    5.3442 O   0  0  0  0  0  0  0  0  0  0  0  0
  -20.2486    2.1527    5.4069 O   0  0  0  0  0  0  0  0  0  0  0  0
  -14.3167   -0.1011    5.5195 O   0  0  0  0  0  0  0  0  0  0  0  0
  -12.8422   -2.2367    4.9786 O   0  0  0  0  0  0  0  0  0  0  0  0
  -10.4870   -2.0838    5.9621 O   0  0  0  0  0  0  0  0  0  0  0  0
  -18.7534   -0.8732    4.4934 O   0  0  0  0  0  0  0  0  0  0  0  0
  -16.3561    0.9745    4.1151 O   0  0  0  0  0  0  0  0  0  0  0  0
  -14.7278    0.7345    4.1535 P   0  0  2  0  0  0  0  0  0  0  0  0
  -14.2469   -1.7321    5.6298 P   0  0  2  0  0  0  0  0  0  0  0  0
  -11.4326   -1.4120    4.9918 P   0  0  1  0  0  0  0  0  0  0  0  0
  1  3  1  0
  3  4  1  0
  4  6  1  0
  5  7  1  0
  6  8  1  1
  7  9  2  0
  3 10  1  6
  9 11  1  0
  2 11  1  0
  1 11  1  1
  5 12  2  0
  2 12  1  0
  5 13  1  0
  2 17  2  0
  4 21  1  6
  1 25  1  0
  6 25  1  0
  8 26  1  0
 14 27  2  0
 22 27  1  0
 26 27  1  0
 27 18  1  1
 23 28  1  0
 15 28  2  0
 28 19  1  1
 22 28  1  0
 16 29  2  0
 29 24  1  1
 23 29  1  0
 20 29  1  0
M  END
