7N4N_0BK_A_401
     RDKit          3D

 32 34  0  0  0  0  0  0  0  0999 V2000
   25.5631  -15.9543  -14.7909 C   0  0  0  0  0  0  0  0  0  0  0  0
   24.2141  -13.9057  -14.9854 C   0  0  0  0  0  0  0  0  0  0  0  0
   23.0548  -13.3478  -15.5327 C   0  0  0  0  0  0  0  0  0  0  0  0
   22.7776  -12.0143  -15.3244 C   0  0  0  0  0  0  0  0  0  0  0  0
   24.7755  -11.8730  -14.0699 C   0  0  0  0  0  0  0  0  0  0  0  0
   20.5956   -9.1048  -16.3645 C   0  0  0  0  0  0  0  0  0  0  0  0
   19.0787   -7.3256  -17.9496 C   0  0  0  0  0  0  0  0  0  0  0  0
   20.4412   -7.1727  -17.8310 C   0  0  0  0  0  0  0  0  0  0  0  0
   21.1768   -8.0649  -17.0404 C   0  0  0  0  0  0  0  0  0  0  0  0
   21.1392   -6.0458  -18.5526 C   0  0  2  0  0  0  0  0  0  0  0  0
   22.1282   -5.5786  -20.8255 C   0  0  0  0  0  0  0  0  0  0  0  0
   23.4639   -5.5279  -20.1757 C   0  0  2  0  0  0  0  0  0  0  0  0
   26.0651   -4.1242  -20.2667 C   0  0  0  0  0  0  0  0  0  0  0  0
   24.4316  -15.2442  -15.2312 O   0  0  0  0  0  0  0  0  0  0  0  0
   23.6687  -11.3054  -14.5824 N   0  0  0  0  0  0  0  0  0  0  0  0
   25.0785  -13.1788  -14.2546 N   0  0  0  0  0  0  0  0  0  0  0  0
   21.5689  -11.3698  -15.8777 C   0  0  0  0  0  0  0  0  0  0  0  0
   20.8555  -12.0680  -16.6282 O   0  0  0  0  0  0  0  0  0  0  0  0
   21.2695  -10.0376  -15.5542 N   0  0  0  0  0  0  0  0  0  0  0  0
   19.2225   -9.2377  -16.4998 C   0  0  0  0  0  0  0  0  0  0  0  0
   18.4960   -8.3622  -17.2764 C   0  0  0  0  0  0  0  0  0  0  0  0
   18.3113   -6.4990  -18.6961 F   0  0  0  0  0  0  0  0  0  0  0  0
   20.3529   -4.7994  -18.1055 C   0  0  0  0  0  0  0  0  0  0  0  0
   20.8235   -4.4937  -16.8434 F   0  0  0  0  0  0  0  0  0  0  0  0
   21.0322   -6.1689  -20.0186 C   0  0  0  0  0  0  0  0  0  0  0  0
   24.2961   -6.7160  -20.6815 C   0  0  0  0  0  0  0  0  0  0  0  0
   23.4492   -5.6786  -18.7060 C   0  0  0  0  0  0  0  0  0  0  0  0
   24.7084   -5.5565  -18.0315 N   0  0  0  0  0  0  0  0  0  0  0  0
   22.4268   -5.9076  -17.9803 N   0  0  0  0  0  0  0  0  0  0  0  0
   24.3609   -4.0571  -20.6721 S   0  0  2  0  0  6  0  0  0  0  0  0
   23.7431   -2.8304  -20.0467 O   0  0  0  0  0  0  0  0  0  0  0  0
   24.2303   -3.9482  -22.1727 O   0  0  0  0  0  0  0  0  0  0  0  0
  2  3  2  0
  3  4  1  0
  7  8  2  0
  8  9  1  0
  6  9  2  0
 10  8  1  1
 11 12  1  1
  2 14  1  0
  1 14  1  1
  4 15  2  0
  5 15  1  0
  2 16  1  0
  5 16  2  0
  4 17  1  0
 17 18  2  0
  6 19  1  0
 17 19  1  0
  6 20  1  0
  7 21  1  0
 20 21  2  0
  7 22  1  0
 10 23  1  0
 23 24  1  6
 25 11  1  1
 10 25  1  0
 26 12  1  1
 12 27  1  1
 27 28  1  0
 27 29  2  0
 10 29  1  0
 30 13  1  6
 12 30  1  0
 30 31  2  0
 30 32  2  0
M  END
$$$$
