7MMH_ZJY_A_1202
     RDKit          3D

104110  0  0  0  0  0  0  0  0999 V2000
  -15.8910   20.8658  -14.9569 C   0  0  0  0  0  0  0  0  0  0  0  0
  -19.3583   17.5605  -14.1307 C   0  0  0  0  0  0  0  0  0  0  0  0
  -15.9606   17.8591  -15.3181 C   0  0  0  0  0  0  0  0  0  0  0  0
  -18.2363   19.1924  -14.2399 C   0  0  0  0  0  0  0  0  0  0  0  0
  -16.4602   19.1829  -15.9097 C   0  0  0  0  0  0  0  0  0  0  0  0
  -19.6482   17.9459  -11.8791 C   0  0  0  0  0  0  0  0  0  0  0  0
  -13.7092   19.7881  -15.8246 C   0  0  1  0  0  0  0  0  0  0  0  0
  -13.3791   18.7679  -17.0550 C   0  0  0  0  0  0  0  0  0  0  0  0
  -14.4728   18.0065  -17.0757 C   0  0  2  0  0  0  0  0  0  0  0  0
  -15.6649   19.0546  -16.9862 C   0  0  0  0  0  0  0  0  0  0  0  0
  -13.2638   21.2059  -15.8347 C   0  0  0  0  0  0  0  0  0  0  0  0
  -11.7903   22.8172  -14.5226 C   0  0  2  0  0  0  0  0  0  0  0  0
  -17.4059   20.9799  -15.1636 C   0  0  2  0  0  0  0  0  0  0  0  0
  -17.9662   19.2892  -13.4610 C   0  0  0  0  0  0  0  0  0  0  0  0
  -17.7270   22.4500  -15.4569 C   0  0  0  0  0  0  0  0  0  0  0  0
  -17.0460   22.9037  -16.7887 C   0  0  0  0  0  0  0  0  0  0  0  0
  -17.7305   17.8822  -13.6414 C   0  0  0  0  0  0  0  0  0  0  0  0
  -18.4241   17.2127  -12.4470 C   0  0  0  0  0  0  0  0  0  0  0  0
  -20.1524   19.2666  -12.4647 C   0  0  0  0  0  0  0  0  0  0  0  0
  -19.4769   19.9130  -13.6524 C   0  0  0  0  0  0  0  0  0  0  0  0
  -19.5464   17.3142   -9.6147 C   0  0  0  0  0  0  0  0  0  0  0  0
  -15.7430   19.7992  -17.1093 C   0  0  0  0  0  0  0  0  0  0  0  0
  -10.8518   23.5464  -15.4495 C   0  0  0  0  0  0  0  0  0  0  0  0
   -7.6365   22.3395  -17.6159 C   0  0  2  0  0  0  0  0  0  0  0  0
   -7.9198   20.9021  -17.1849 C   0  0  0  0  0  0  0  0  0  0  0  0
   -8.5675   21.4619  -18.4624 C   0  0  0  0  0  0  0  0  0  0  0  0
   -6.2388   22.6794  -18.1862 C   0  0  0  0  0  0  0  0  0  0  0  0
  -12.8629   23.8274  -14.0234 C   0  0  2  0  0  0  0  0  0  0  0  0
  -13.1372   25.3174  -14.2474 C   0  0  0  0  0  0  0  0  0  0  0  0
  -14.2913   25.8394  -14.7214 C   0  0  0  0  0  0  0  0  0  0  0  0
  -15.5110   24.9736  -15.1081 C   0  0  0  0  0  0  0  0  0  0  0  0
  -15.8377   25.1543  -16.6084 C   0  0  0  0  0  0  0  0  0  0  0  0
  -11.6810   23.4493  -13.1218 C   0  0  0  0  0  0  0  0  0  0  0  0
  -17.1916   24.4509  -16.9392 C   0  0  0  0  0  0  0  0  0  0  0  0
  -19.0091   16.6588  -12.9427 C   0  0  1  0  0  0  0  0  0  0  0  0
  -19.1480   15.1601  -13.2387 C   0  0  0  0  0  0  0  0  0  0  0  0
  -17.7533   15.7826  -13.0680 C   0  0  0  0  0  0  0  0  0  0  0  0
  -19.4174   17.0959  -11.5144 C   0  0  2  0  0  0  0  0  0  0  0  0
  -20.7881   17.1063  -11.4413 F   0  0  0  0  0  0  0  0  0  0  0  0
  -18.9324   18.3333  -11.2757 F   0  0  0  0  0  0  0  0  0  0  0  0
  -18.8559   16.1874  -10.6518 F   0  0  0  0  0  0  0  0  0  0  0  0
  -15.0997   19.9861  -15.8131 N   0  0  0  0  0  0  0  0  0  0  0  0
  -12.2568   21.4699  -14.8522 N   0  0  0  0  0  0  0  0  0  0  0  0
  -18.1223   20.6207  -13.9873 N   0  0  0  0  0  0  0  0  0  0  0  0
  -16.5603   17.2096  -14.1861 N   0  0  0  0  0  0  0  0  0  0  0  0
  -17.6041   19.8558  -15.3677 N   0  0  0  0  0  0  0  0  0  0  0  0
   -9.7747   22.7515  -15.9345 N   0  0  0  0  0  0  0  0  0  0  0  0
  -13.6973   22.0309  -16.5773 O   0  0  0  0  0  0  0  0  0  0  0  0
  -15.3729   21.4995  -14.0952 O   0  0  0  0  0  0  0  0  0  0  0  0
  -18.1599   18.2543  -14.3913 O   0  0  0  0  0  0  0  0  0  0  0  0
  -17.6770   19.0691  -12.3132 O   0  0  0  0  0  0  0  0  0  0  0  0
  -14.8235   17.2905  -15.8591 O   0  0  0  0  0  0  0  0  0  0  0  0
  -20.3006   17.3904  -10.7979 O   0  0  0  0  0  0  0  0  0  0  0  0
  -10.9086   24.7122  -15.7272 O   0  0  0  0  0  0  0  0  0  0  0  0
   -7.6165   24.2730  -15.7207 O   0  0  0  0  0  0  0  0  0  0  0  0
   -9.0407   24.5161  -17.6174 O   0  0  0  0  0  0  0  0  0  0  0  0
   -8.5282   23.5617  -16.6291 S   0  0  1  0  0  6  0  0  0  0  0  0
  -20.1442   18.2403  -13.8750 H   0  0  0  0  0  0  0  0  0  0  0  0
  -19.7099   17.0100  -14.9781 H   0  0  0  0  0  0  0  0  0  0  0  0
  -13.1936   19.2915  -15.0293 H   0  0  0  0  0  0  0  0  0  0  0  0
  -12.5030   18.1868  -16.8554 H   0  0  0  0  0  0  0  0  0  0  0  0
  -13.1741   19.2590  -17.9832 H   0  0  0  0  0  0  0  0  0  0  0  0
  -14.3189   17.3386  -17.8974 H   0  0  0  0  0  0  0  0  0  0  0  0
  -16.5892   18.5877  -16.7166 H   0  0  0  0  0  0  0  0  0  0  0  0
  -15.9001   19.5601  -17.8995 H   0  0  0  0  0  0  0  0  0  0  0  0
  -17.6909   20.3254  -15.9606 H   0  0  0  0  0  0  0  0  0  0  0  0
  -17.3663   23.0566  -14.6526 H   0  0  0  0  0  0  0  0  0  0  0  0
  -18.7868   22.5600  -15.5550 H   0  0  0  0  0  0  0  0  0  0  0  0
  -17.5193   22.4177  -17.6162 H   0  0  0  0  0  0  0  0  0  0  0  0
  -16.0091   22.6405  -16.7699 H   0  0  0  0  0  0  0  0  0  0  0  0
  -18.0876   16.3221  -12.0488 H   0  0  0  0  0  0  0  0  0  0  0  0
  -20.9724   19.7265  -12.0391 H   0  0  0  0  0  0  0  0  0  0  0  0
  -19.8265   20.7965  -14.0551 H   0  0  0  0  0  0  0  0  0  0  0  0
  -20.1391   16.8712   -8.8418 H   0  0  0  0  0  0  0  0  0  0  0  0
  -19.2495   18.2980   -9.3169 H   0  0  0  0  0  0  0  0  0  0  0  0
  -18.6762   16.7150   -9.7843 H   0  0  0  0  0  0  0  0  0  0  0  0
  -14.9174   19.1786  -17.3887 H   0  0  0  0  0  0  0  0  0  0  0  0
  -15.3849   20.7733  -16.8489 H   0  0  0  0  0  0  0  0  0  0  0  0
  -16.4244   19.8775  -17.9305 H   0  0  0  0  0  0  0  0  0  0  0  0
   -8.5203   20.7115  -16.3200 H   0  0  0  0  0  0  0  0  0  0  0  0
   -7.3166   20.0489  -16.9544 H   0  0  0  0  0  0  0  0  0  0  0  0
   -8.2488   21.1127  -19.4223 H   0  0  0  0  0  0  0  0  0  0  0  0
   -9.5688   21.5514  -18.8290 H   0  0  0  0  0  0  0  0  0  0  0  0
   -5.8663   21.8427  -18.7396 H   0  0  0  0  0  0  0  0  0  0  0  0
   -5.5694   22.9013  -17.3814 H   0  0  0  0  0  0  0  0  0  0  0  0
   -6.3140   23.5291  -18.8320 H   0  0  0  0  0  0  0  0  0  0  0  0
  -13.9263   23.7635  -14.1236 H   0  0  0  0  0  0  0  0  0  0  0  0
  -12.3783   25.9780  -14.0175 H   0  0  0  0  0  0  0  0  0  0  0  0
  -14.3604   26.8633  -14.8298 H   0  0  0  0  0  0  0  0  0  0  0  0
  -16.3562   25.2719  -14.5237 H   0  0  0  0  0  0  0  0  0  0  0  0
  -15.2832   23.9450  -14.9210 H   0  0  0  0  0  0  0  0  0  0  0  0
  -15.0574   24.7193  -17.1974 H   0  0  0  0  0  0  0  0  0  0  0  0
  -15.9161   26.1978  -16.8314 H   0  0  0  0  0  0  0  0  0  0  0  0
  -11.8454   22.8485  -12.2518 H   0  0  0  0  0  0  0  0  0  0  0  0
  -10.9250   24.0002  -12.6022 H   0  0  0  0  0  0  0  0  0  0  0  0
  -17.4742   24.6832  -17.9447 H   0  0  0  0  0  0  0  0  0  0  0  0
  -17.9412   24.7988  -16.2595 H   0  0  0  0  0  0  0  0  0  0  0  0
  -19.4734   14.8335  -14.2043 H   0  0  0  0  0  0  0  0  0  0  0  0
  -19.6731   14.3452  -12.7859 H   0  0  0  0  0  0  0  0  0  0  0  0
  -17.1078   15.8901  -13.9146 H   0  0  0  0  0  0  0  0  0  0  0  0
  -16.9052   15.5817  -12.4475 H   0  0  0  0  0  0  0  0  0  0  0  0
  -11.8581   20.7070  -14.3744 H   0  0  0  0  0  0  0  0  0  0  0  0
  -18.7132   21.2701  -13.5419 H   0  0  0  0  0  0  0  0  0  0  0  0
   -9.7777   21.7700  -15.8574 H   0  0  0  0  0  0  0  0  0  0  0  0
  3  5  4  0
  7  8  1  0
  8  9  1  0
  9 10  1  0
  7 11  1  0
  1 13  1  0
 13 15  1  0
 15 16  1  0
  4 17  4  0
 17 18  4  0
  6 18  4  0
  6 19  4  0
  4 20  4  0
 19 20  4  0
  5 22  1  0
 12 23  1  6
 24 25  1  0
 24 26  1  0
 25 26  1  0
 24 27  1  6
 12 28  1  0
 28 29  1  0
 29 30  2  0
 30 31  1  0
 31 32  1  0
 28 33  1  0
 12 33  1  0
 32 34  1  0
 16 34  1  0
 35  2  1  6
 35 36  1  0
 36 37  1  0
 35 37  1  0
 35 38  1  0
 38 39  1  6
 38 40  1  0
 38 41  1  0
  1 42  1  0
  7 42  1  0
 10 42  1  0
 12 43  1  0
 11 43  1  0
 14 44  1  0
 13 44  1  0
  3 45  4  0
 17 45  4  0
  5 46  4  0
  4 46  4  0
 23 47  1  0
 11 48  2  0
  1 49  2  0
  2 50  1  0
 14 50  1  0
 14 51  2  0
  3 52  1  0
  9 52  1  0
  6 53  1  0
 21 53  1  0
 23 54  2  0
 55 57  2  0
 57 47  1  1
 56 57  2  0
 24 57  1  0
  2 58  1  0
  2 59  1  0
  7 60  1  1
  8 61  1  0
  8 62  1  0
  9 63  1  6
 10 64  1  0
 10 65  1  0
 13 66  1  6
 15 67  1  0
 15 68  1  0
 16 69  1  0
 16 70  1  0
 18 71  1  0
 19 72  1  0
 20 73  1  0
 21 74  1  0
 21 75  1  0
 21 76  1  0
 22 77  1  0
 22 78  1  0
 22 79  1  0
 25 80  1  0
 25 81  1  0
 26 82  1  0
 26 83  1  0
 27 84  1  0
 27 85  1  0
 27 86  1  0
 28 87  1  1
 29 88  1  0
 30 89  1  0
 31 90  1  0
 31 91  1  0
 32 92  1  0
 32 93  1  0
 33 94  1  0
 33 95  1  0
 34 96  1  0
 34 97  1  0
 36 98  1  0
 36 99  1  0
 37100  1  0
 37101  1  0
 43102  1  0
 44103  1  0
 47104  1  0
M  END
