7AS1_21G_A_501
     RDKit          3D

 48 52  0  0  0  0  0  0  0  0999 V2000
   -9.9520   -4.1074   -5.2853 C   0  0  0  0  0  0  0  0  0  0  0  0
  -10.4239   -3.3434   -6.3663 C   0  0  0  0  0  0  0  0  0  0  0  0
  -11.6922   -3.6211   -6.9225 C   0  0  0  0  0  0  0  0  0  0  0  0
  -11.9994   -5.3584   -5.3734 C   0  0  0  0  0  0  0  0  0  0  0  0
  -10.7772   -5.1243   -4.8034 C   0  0  0  0  0  0  0  0  0  0  0  0
  -10.6398   -6.0466   -3.7760 C   0  0  0  0  0  0  0  0  0  0  0  0
  -12.4655   -4.6278   -6.4170 N   0  0  0  0  0  0  0  0  0  0  0  0
  -11.8164   -6.7973   -3.7913 C   0  0  0  0  0  0  0  0  0  0  0  0
  -12.6435   -6.3701   -4.7724 N   0  0  0  0  0  4  0  0  0  0  0  0
   -9.5141   -6.2228   -2.8395 C   0  0  0  0  0  0  0  0  0  0  0  0
   -9.3259   -5.3322   -1.8287 N   0  0  0  0  0  0  0  0  0  0  0  0
   -8.2932   -5.4689   -0.9576 C   0  0  0  0  0  0  0  0  0  0  0  0
   -7.4039   -6.5345   -1.0921 C   0  0  0  0  0  0  0  0  0  0  0  0
   -7.6045   -7.4473   -2.1353 C   0  0  0  0  0  0  0  0  0  0  0  0
   -8.6562   -7.2670   -2.9796 N   0  0  0  0  0  0  0  0  0  0  0  0
   -6.7139   -8.5612   -2.3156 N   0  0  0  0  0  0  0  0  0  0  0  0
   -6.8475   -9.4952   -3.4444 C   0  0  2  0  0  0  0  0  0  0  0  0
   -7.0246   -8.7326   -4.8096 C   0  0  2  0  0  0  0  0  0  0  0  0
   -8.2901   -9.2499   -5.5538 C   0  0  2  0  0  0  0  0  0  0  0  0
   -9.5184   -8.9430   -4.6634 C   0  0  0  0  0  0  0  0  0  0  0  0
   -9.3735   -9.6384   -3.2836 C   0  0  0  0  0  0  0  0  0  0  0  0
   -8.0551  -10.4499   -3.2166 C   0  0  1  0  0  0  0  0  0  0  0  0
   -8.0687  -11.4912   -4.3607 C   0  0  0  0  0  0  0  0  0  0  0  0
   -8.2143  -10.7874   -5.7347 C   0  0  0  0  0  0  0  0  0  0  0  0
   -5.7974   -8.8163   -5.6857 C   0  0  0  0  0  0  0  0  0  0  0  0
   -4.5231   -8.6574   -5.1464 O   0  0  0  0  0  0  0  0  0  0  0  0
   -5.9237   -9.0735   -6.9131 O   0  0  0  0  0  0  0  0  0  0  0  0
   -6.3701   -6.6711   -0.2243 F   0  0  0  0  0  0  0  0  0  0  0  0
   -9.6633   -2.3424   -6.8736 F   0  0  0  0  0  0  0  0  0  0  0  0
   -8.9836   -3.9022   -4.8562 H   0  0  0  0  0  0  0  0  0  0  0  0
  -12.0566   -3.0337   -7.7546 H   0  0  0  0  0  0  0  0  0  0  0  0
  -12.0546   -7.6113   -3.1189 H   0  0  0  0  0  0  0  0  0  0  0  0
  -13.5871   -6.7489   -5.0093 H   0  0  0  0  0  0  0  0  0  0  0  0
   -8.1630   -4.7483   -0.1612 H   0  0  0  0  0  0  0  0  0  0  0  0
   -5.9458   -8.6965   -1.6204 H   0  0  0  0  0  0  0  0  0  0  0  0
   -5.9249  -10.1155   -3.4804 H   0  0  0  0  0  0  0  0  0  0  0  0
   -7.1923   -7.6500   -4.6147 H   0  0  0  0  0  0  0  0  0  0  0  0
   -8.4029   -8.7482   -6.5402 H   0  0  0  0  0  0  0  0  0  0  0  0
   -9.6186   -7.8442   -4.5243 H   0  0  0  0  0  0  0  0  0  0  0  0
  -10.4446   -9.2955   -5.1685 H   0  0  0  0  0  0  0  0  0  0  0  0
   -9.3911   -8.8786   -2.4724 H   0  0  0  0  0  0  0  0  0  0  0  0
  -10.2365  -10.3187   -3.1137 H   0  0  0  0  0  0  0  0  0  0  0  0
   -7.9756  -10.9702   -2.2379 H   0  0  0  0  0  0  0  0  0  0  0  0
   -8.9112  -12.2009   -4.2087 H   0  0  0  0  0  0  0  0  0  0  0  0
   -7.1296  -12.0859   -4.3403 H   0  0  0  0  0  0  0  0  0  0  0  0
   -9.1377  -11.1452   -6.2406 H   0  0  0  0  0  0  0  0  0  0  0  0
   -7.3651  -11.0575   -6.3965 H   0  0  0  0  0  0  0  0  0  0  0  0
   -3.6985   -8.7299   -5.7301 H   0  0  0  0  0  0  0  0  0  0  0  0
  1  2  4  0
  2  3  4  0
  4  5  4  0
  1  5  4  0
  5  6  4  0
  4  7  4  0
  3  7  4  0
  6  8  4  0
  4  9  4  0
  8  9  4  0
  6 10  1  0
 10 11  4  0
 11 12  4  0
 12 13  4  0
 13 14  4  0
 10 15  4  0
 14 15  4  0
 14 16  1  0
 17 16  1  0
 17 18  1  0
 18 19  1  0
 19 20  1  0
 20 21  1  0
 17 22  1  0
 22 21  1  0
 22 23  1  0
 23 24  1  0
 19 24  1  0
 18 25  1  0
 25 26  1  0
 25 27  2  0
 13 28  1  0
  2 29  1  0
  1 30  1  0
  3 31  1  0
  8 32  1  0
  9 33  1  0
 12 34  1  0
 16 35  1  0
 17 36  1  6
 18 37  1  1
 19 38  1  6
 20 39  1  0
 20 40  1  0
 21 41  1  0
 21 42  1  0
 22 43  1  1
 23 44  1  0
 23 45  1  0
 24 46  1  0
 24 47  1  0
 26 48  1  0
M  CHG  1   9   1
M  END
