6Z1C_7EY_A_501
     RDKit          3D

 22 24  0  0  0  0  0  0  0  0999 V2000
    5.8303   -3.0582   20.9356 C   0  0  0  0  0  0  0  0  0  0  0  0
    6.8740   -3.6630   21.6087 C   0  0  0  0  0  0  0  0  0  0  0  0
    6.5951   -5.0088   21.9310 C   0  0  0  0  0  0  0  0  0  0  0  0
    5.4380   -5.5898   21.5964 N   0  0  0  0  0  0  0  0  0  0  0  0
    4.6826   -3.6669   20.6167 N   0  0  0  0  0  0  0  0  0  0  0  0
    9.4285   -7.0534   23.4045 O   0  0  0  0  0  0  0  0  0  0  0  0
    9.2877   -8.2942   23.2453 C   0  0  0  0  0  0  0  0  0  0  0  0
   10.3454   -9.1895   23.2563 O   0  0  0  0  0  0  0  0  0  0  0  0
    7.8689   -8.7716   23.0358 C   0  0  0  0  0  0  0  0  0  0  0  0
    6.9108   -7.6184   23.1493 C   0  0  0  0  0  0  0  0  0  0  0  0
    7.6997   -6.0083   22.9228 S   0  0  0  0  0  0  0  0  0  0  0  0
    4.4763   -4.9527   20.9478 C   0  0  0  0  0  0  0  0  0  0  0  0
    6.3261   -1.4291   20.6109 S   0  0  0  0  0  0  0  0  0  0  0  0
    7.9285   -1.5821   21.3781 C   0  0  0  0  0  0  0  0  0  0  0  0
    7.9707   -2.9507   21.8560 C   0  0  0  0  0  0  0  0  0  0  0  0
    9.2752   -3.3330   22.4692 C   0  0  0  0  0  0  0  0  0  0  0  0
    9.5787   -2.9865   23.7688 C   0  0  0  0  0  0  0  0  0  0  0  0
   10.8008   -3.3658   24.3130 C   0  0  0  0  0  0  0  0  0  0  0  0
   11.7062   -4.0830   23.5672 C   0  0  0  0  0  0  0  0  0  0  0  0
   12.9845   -4.4527   24.2233 C   0  0  0  0  0  0  0  0  0  0  0  0
   11.3849   -4.4196   22.2733 C   0  0  0  0  0  0  0  0  0  0  0  0
   10.1813   -4.0570   21.7067 C   0  0  0  0  0  0  0  0  0  0  0  0
  1  2  1  0
  2  3  2  0
  3  4  1  0
  1  5  2  0
  6  7  2  0
  7  8  1  0
  7  9  1  0
  9 10  1  0
  3 11  1  0
 10 11  1  0
  4 12  2  0
  5 12  1  0
  1 13  1  0
 13 14  1  0
  2 15  1  0
 14 15  2  0
 15 16  1  0
 16 17  2  0
 17 18  1  0
 18 19  2  0
 19 20  1  0
 19 21  1  0
 16 22  1  0
 21 22  2  0
M  END
$$$$
