6YR2_T1C_BBB_1001
     RDKit          3D

 83 86  0  0  0  0  0  0  0  0999 V2000
   49.5122   16.0144    6.5285 C   0  0  2  0  0  0  0  0  0  0  0  0
   49.2132   15.3783    7.9067 C   0  0  1  0  0  0  0  0  0  0  0  0
   49.1868   16.4972    8.9650 C   0  0  2  0  0  0  0  0  0  0  0  0
   47.8226   14.7078    7.8913 C   0  0  1  0  0  0  0  0  0  0  0  0
   50.2729   14.4174    8.3044 N   0  0  0  0  0  0  0  0  0  0  0  0
   51.6484   14.7537    7.8875 C   0  0  2  0  0  0  0  0  0  0  0  0
   52.6554   13.9716    8.6772 C   0  0  0  0  0  0  0  0  0  0  0  0
   52.2525   13.2336    9.6183 O   0  0  0  0  0  0  0  0  0  0  0  0
   54.0439   13.9771    8.3050 N   0  0  0  0  0  0  0  0  0  0  0  0
   54.9214   15.0651    8.6386 C   0  0  0  0  0  0  0  0  0  0  0  0
   56.0459   15.2893    7.8440 C   0  0  0  0  0  0  0  0  0  0  0  0
   57.0152   16.2597    8.1833 C   0  0  0  0  0  0  0  0  0  0  0  0
   58.0910   16.5614    7.2396 N   0  0  1  0  0  4  0  0  0  0  0  0
   59.4016   16.0637    7.7052 C   0  0  2  0  0  0  0  0  0  0  0  0
   57.7623   16.0117    5.9126 C   0  0  2  0  0  0  0  0  0  0  0  0
   56.8292   17.0083    9.3865 C   0  0  0  0  0  0  0  0  0  0  0  0
   57.8612   18.0066    9.8944 C   0  0  2  0  0  0  0  0  0  0  0  0
   57.8192   18.1755   11.4314 C   0  0  1  0  0  0  0  0  0  0  0  0
   58.9199   19.1618   11.9096 C   0  0  1  0  0  0  0  0  0  0  0  0
   58.3948   20.4186   12.6422 C   0  0  1  0  0  0  0  0  0  0  0  0
   57.8920   21.5424   11.6390 C   0  0  2  0  0  0  0  0  0  0  0  0
   58.9401   22.5593   11.2936 N   0  0  1  0  0  4  0  0  0  0  0  0
   59.5781   23.1981   12.4653 C   0  0  1  0  0  0  0  0  0  0  0  0
   59.9727   22.0440   10.3776 C   0  0  1  0  0  0  0  0  0  0  0  0
   56.6186   22.2713   12.0809 C   0  0  0  0  0  0  0  0  0  0  0  0
   55.9163   23.0186   11.1330 O   0  0  0  0  0  0  0  0  0  0  0  0
   56.1822   22.2464   13.3529 C   0  0  0  0  0  0  0  0  0  0  0  0
   55.0829   23.1268   13.8118 C   0  0  0  0  0  0  0  0  0  0  0  0
   54.4167   22.8124   14.8344 O   0  0  0  0  0  0  0  0  0  0  0  0
   54.7979   24.3562   13.1440 N   0  0  0  0  0  0  0  0  0  0  0  0
   56.7411   21.2464   14.2757 C   0  0  0  0  0  0  0  0  0  0  0  0
   56.6502   21.4041   15.5244 O   0  0  0  0  0  0  0  0  0  0  0  0
   57.3405   19.9927   13.6993 C   0  0  2  0  0  0  0  0  0  0  0  0
   57.9565   19.2686   14.7420 O   0  0  0  0  0  0  0  0  0  0  0  0
   56.2214   19.1694   13.0796 C   0  0  0  0  0  0  0  0  0  0  0  0
   55.0070   19.1221   13.7757 O   0  0  0  0  0  0  0  0  0  0  0  0
   56.4162   18.4789   11.9285 C   0  0  0  0  0  0  0  0  0  0  0  0
   55.3016   17.8672   11.1625 C   0  0  0  0  0  0  0  0  0  0  0  0
   54.1156   18.2636   11.3212 O   0  0  0  0  0  0  0  0  0  0  0  0
   55.6036   16.8985   10.0843 C   0  0  0  0  0  0  0  0  0  0  0  0
   54.6589   15.9198    9.7209 C   0  0  0  0  0  0  0  0  0  0  0  0
   53.4632   15.8231   10.4355 O   0  0  0  0  0  0  0  0  0  0  0  0
   50.4574   16.5988    6.5630 H   0  0  0  0  0  0  0  0  0  0  0  0
   48.6907   16.7016    6.2303 H   0  0  0  0  0  0  0  0  0  0  0  0
   49.6031   15.2531    5.7278 H   0  0  0  0  0  0  0  0  0  0  0  0
   48.2720   16.4207    9.5916 H   0  0  0  0  0  0  0  0  0  0  0  0
   49.2053   17.5002    8.4855 H   0  0  0  0  0  0  0  0  0  0  0  0
   50.0717   16.4187    9.6356 H   0  0  0  0  0  0  0  0  0  0  0  0
   47.8932   13.6205    7.6722 H   0  0  0  0  0  0  0  0  0  0  0  0
   47.3246   14.8439    8.8743 H   0  0  0  0  0  0  0  0  0  0  0  0
   47.1783   15.1637    7.1101 H   0  0  0  0  0  0  0  0  0  0  0  0
   50.2629   14.3140    9.3471 H   0  0  0  0  0  0  0  0  0  0  0  0
   51.8434   15.8311    8.0800 H   0  0  0  0  0  0  0  0  0  0  0  0
   51.8138   14.5968    6.8042 H   0  0  0  0  0  0  0  0  0  0  0  0
   54.4810   13.0722    8.0184 H   0  0  0  0  0  0  0  0  0  0  0  0
   56.1627   14.6890    6.9523 H   0  0  0  0  0  0  0  0  0  0  0  0
   58.2126   17.5884    7.1032 H   0  0  0  0  0  0  0  0  0  0  0  0
   60.0896   16.9133    7.9163 H   0  0  0  0  0  0  0  0  0  0  0  0
   59.8742   15.4353    6.9168 H   0  0  0  0  0  0  0  0  0  0  0  0
   59.3062   15.4332    8.6168 H   0  0  0  0  0  0  0  0  0  0  0  0
   57.7203   14.8997    5.9623 H   0  0  0  0  0  0  0  0  0  0  0  0
   58.5241   16.2981    5.1488 H   0  0  0  0  0  0  0  0  0  0  0  0
   56.7631   16.3691    5.5776 H   0  0  0  0  0  0  0  0  0  0  0  0
   57.7064   18.9831    9.3877 H   0  0  0  0  0  0  0  0  0  0  0  0
   58.8849   17.6411    9.6773 H   0  0  0  0  0  0  0  0  0  0  0  0
   58.0778   17.1806   11.8629 H   0  0  0  0  0  0  0  0  0  0  0  0
   59.5973   18.6166   12.6046 H   0  0  0  0  0  0  0  0  0  0  0  0
   59.5777   19.4452   11.0677 H   0  0  0  0  0  0  0  0  0  0  0  0
   59.2546   20.8164   13.2158 H   0  0  0  0  0  0  0  0  0  0  0  0
   57.5937   21.0270   10.6992 H   0  0  0  0  0  0  0  0  0  0  0  0
   58.4635   23.3294   10.7655 H   0  0  0  0  0  0  0  0  0  0  0  0
   60.5317   22.7038   12.7464 H   0  0  0  0  0  0  0  0  0  0  0  0
   59.8138   24.2593   12.2337 H   0  0  0  0  0  0  0  0  0  0  0  0
   58.9054   23.2037   13.3457 H   0  0  0  0  0  0  0  0  0  0  0  0
   59.4965   21.4868    9.5393 H   0  0  0  0  0  0  0  0  0  0  0  0
   60.5744   22.8667    9.9303 H   0  0  0  0  0  0  0  0  0  0  0  0
   60.6431   21.3258   10.9020 H   0  0  0  0  0  0  0  0  0  0  0  0
   56.3511   23.3347   10.2747 H   0  0  0  0  0  0  0  0  0  0  0  0
   54.4021   25.1642   13.6723 H   0  0  0  0  0  0  0  0  0  0  0  0
   55.0626   24.4966   12.1450 H   0  0  0  0  0  0  0  0  0  0  0  0
   58.2629   18.3953   14.3849 H   0  0  0  0  0  0  0  0  0  0  0  0
   54.1669   18.6933   13.4112 H   0  0  0  0  0  0  0  0  0  0  0  0
   52.7981   15.0729   10.2975 H   0  0  0  0  0  0  0  0  0  0  0  0
  1  2  1  0
  2  3  1  0
  2  4  1  0
  2  5  1  1
  5  6  1  0
  6  7  1  0
  7  8  2  0
  7  9  1  0
  9 10  1  0
 10 11  2  0
 11 12  1  0
 12 13  1  0
 13 14  1  0
 13 15  1  0
 12 16  2  0
 16 17  1  0
 18 17  1  0
 18 19  1  0
 20 19  1  0
 20 21  1  0
 21 22  1  0
 22 23  1  0
 22 24  1  0
 21 25  1  0
 25 26  1  0
 25 27  2  0
 27 28  1  0
 28 29  2  0
 28 30  1  0
 27 31  1  0
 31 32  2  0
 20 33  1  0
 31 33  1  0
 33 34  1  1
 33 35  1  0
 35 36  1  0
 18 37  1  0
 35 37  2  0
 37 38  1  0
 38 39  2  0
 16 40  1  0
 38 40  1  0
 10 41  1  0
 40 41  2  0
 41 42  1  0
  1 43  1  1
  1 44  1  0
  1 45  1  0
  3 46  1  1
  3 47  1  0
  3 48  1  0
  4 49  1  6
  4 50  1  0
  4 51  1  0
  5 52  1  0
  6 53  1  6
  6 54  1  0
  9 55  1  0
 11 56  1  0
 13 57  1  6
 14 58  1  1
 14 59  1  0
 14 60  1  0
 15 61  1  1
 15 62  1  0
 15 63  1  0
 17 64  1  6
 17 65  1  0
 18 66  1  1
 19 67  1  1
 19 68  1  0
 20 69  1  1
 21 70  1  6
 22 71  1  6
 23 72  1  1
 23 73  1  0
 23 74  1  0
 24 75  1  6
 24 76  1  0
 24 77  1  0
 26 78  1  0
 30 79  1  0
 30 80  1  0
 34 81  1  0
 36 82  1  0
 42 83  1  0
M  CHG  2  13   1  22   1
M  END
