@<TRIPOS>MOLECULE
1LPZ_CMB_B_301
 54 57 0 0 0
SMALL
GASTEIGER

@<TRIPOS>ATOM
      1 C           3.9020    9.7100   25.8190 C.ar    1  UNL1       -0.0595
      2 C           5.0190    8.9440   25.4540 C.ar    1  UNL1       -0.0376
      3 C           5.3240    8.7110   24.0820 C.ar    1  UNL1        0.0502
      4 C           4.5650    9.2430   23.0410 C.ar    1  UNL1        0.0035
      5 C           3.4020   10.0360   23.4190 C.ar    1  UNL1       -0.0413
      6 C           3.0890   10.2410   24.7900 C.ar    1  UNL1       -0.0582
      7 N           6.3100    7.8910   23.5500 N.ar    1  UNL1       -0.3318
      8 C           6.1790    7.9630   22.1710 C.ar    1  UNL1        0.1057
      9 C           5.1020    8.8590   21.7940 C.ar    1  UNL1       -0.0237
     10 C           2.5560   10.6660   22.3880 C.3     1  UNL1       -0.0391
     11 C           6.9710    7.2330   21.2470 C.2     1  UNL1        0.2608
     12 N           6.4300    6.9100   20.0470 N.am    1  UNL1       -0.3060
     13 C           7.2180    6.1500   19.0760 C.3     1  UNL1        0.0373
     14 C           7.5250    4.6930   19.4150 C.ar    1  UNL1       -0.0276
     15 C           7.1730    7.0070   24.3450 C.3     1  UNL1        0.0490
     16 C           8.4660    7.6430   24.7880 C.ar    1  UNL1       -0.0269
     17 C           9.1520    8.6530   24.0800 C.ar    1  UNL1       -0.0568
     18 C          10.4430    9.0430   24.4850 C.ar    1  UNL1       -0.0606
     19 C          11.0080    8.4270   25.6190 C.ar    1  UNL1       -0.0469
     20 C          10.2730    7.4690   26.3560 C.ar    1  UNL1        0.0650
     21 C           9.0090    7.0820   25.9340 C.ar    1  UNL1       -0.0420
     22 C           8.4830    3.9960   18.6620 C.ar    1  UNL1       -0.0386
     23 C           8.7180    2.6240   18.8490 C.ar    1  UNL1        0.0427
     24 C           7.9850    1.9400   19.8330 C.ar    1  UNL1       -0.0250
     25 C           7.0210    2.6140   20.6080 C.ar    1  UNL1        0.0427
     26 C           6.8080    3.9930   20.3970 C.ar    1  UNL1       -0.0386
     27 C          10.7420    6.8550   27.5860 C.2     1  UNL1        0.3081
     28 N          12.0200    6.8870   27.9700 N.2     1  UNL1       -0.0994
     29 CL          9.8430    1.7730   17.8020 Cl      1  UNL1       -0.0835
     30 CL          6.0320    1.7510   21.7850 Cl      1  UNL1       -0.0835
     31 O           8.1180    6.8820   21.5360 O.2     1  UNL1       -0.2686
     32 N           9.8220    6.2060   28.2890 N.pl3   1  UNL1       -0.2466
     33 H           3.6791    9.8817   26.8119 H       1  UNL1        0.0618
     34 H           5.6262    8.5451   26.1870 H       1  UNL1        0.0638
     35 H           2.2510   10.7888   25.0403 H       1  UNL1        0.0620
     36 H           4.8029    9.1446   20.8485 H       1  UNL1        0.0646
     37 H           2.9278   10.4119   21.4174 H       1  UNL1        0.0278
     38 H           2.5761   11.7288   22.5107 H       1  UNL1        0.0278
     39 H           1.5504   10.3143   22.4880 H       1  UNL1        0.0278
     40 H           5.5103    7.1857   19.8294 H       1  UNL1        0.1494
     41 H           8.1528    6.6560   18.9533 H       1  UNL1        0.0512
     42 H           6.6075    6.1066   18.1983 H       1  UNL1        0.0512
     43 H           7.4073    6.1463   23.7541 H       1  UNL1        0.0541
     44 H           6.6292    6.7634   25.2337 H       1  UNL1        0.0541
     45 H           8.7076    9.1055   23.2659 H       1  UNL1        0.0621
     46 H          10.9640    9.7645   23.9624 H       1  UNL1        0.0618
     47 H          11.9649    8.6764   25.9142 H       1  UNL1        0.0626
     48 H           8.4756    6.3800   26.4705 H       1  UNL1        0.0629
     49 H           9.0300    4.5061   17.9510 H       1  UNL1        0.0635
     50 H           8.1544    0.9341   19.9896 H       1  UNL1        0.0647
     51 H           6.1143    4.4941   20.9738 H       1  UNL1        0.0635
     52 H          12.6838    7.3754   27.4313 H       1  UNL1        0.3633
     53 H           8.8857    6.1971   27.9849 H       1  UNL1        0.2884
     54 H          10.0759    5.7335   29.1145 H       1  UNL1        0.2884
@<TRIPOS>BOND
     1     1     2   ar
     2     2     3   ar
     3     3     4   ar
     4     4     5   ar
     5     1     6   ar
     6     5     6   ar
     7     3     7   ar
     8     7     8   ar
     9     4     9   ar
    10     8     9   ar
    11     5    10    1
    12     8    11    1
    13    11    12   am
    14    12    13    1
    15    13    14    1
    16     7    15    1
    17    15    16    1
    18    16    17   ar
    19    17    18   ar
    20    18    19   ar
    21    19    20   ar
    22    16    21   ar
    23    20    21   ar
    24    14    22   ar
    25    22    23   ar
    26    23    24   ar
    27    24    25   ar
    28    14    26   ar
    29    25    26   ar
    30    20    27    1
    31    27    28    2
    32    23    29    1
    33    25    30    1
    34    11    31    2
    35    27    32    1
    36     1    33    1
    37     2    34    1
    38     6    35    1
    39     9    36    1
    40    10    37    1
    41    10    38    1
    42    10    39    1
    43    12    40    1
    44    13    41    1
    45    13    42    1
    46    15    43    1
    47    15    44    1
    48    17    45    1
    49    18    46    1
    50    19    47    1
    51    21    48    1
    52    22    49    1
    53    24    50    1
    54    26    51    1
    55    28    52    1
    56    32    53    1
    57    32    54    1
