1LPZ_CMB_B_301
     RDKit          3D

 54 57  0  0  0  0  0  0  0  0999 V2000
    3.3298    9.5618   25.9216 C   0  0  0  0  0  0  0  0  0  0  0  0
    4.5083    8.8660   25.6142 C   0  0  0  0  0  0  0  0  0  0  0  0
    4.9481    8.7412   24.2648 C   0  0  0  0  0  0  0  0  0  0  0  0
    4.2652    9.3157   23.1941 C   0  0  0  0  0  0  0  0  0  0  0  0
    3.0385   10.0358   23.5119 C   0  0  0  0  0  0  0  0  0  0  0  0
    2.5922   10.1325   24.8577 C   0  0  0  0  0  0  0  0  0  0  0  0
    6.0140    7.9982   23.7755 N   0  0  0  0  0  4  0  0  0  0  0  0
    6.0072    8.1615   22.3981 C   0  0  0  0  0  0  0  0  0  0  0  0
    4.9309    9.0404   21.9809 C   0  0  0  0  0  0  0  0  0  0  0  0
    2.2639   10.7040   22.4494 C   0  0  0  0  0  0  0  0  0  0  0  0
    6.9121    7.5283   21.5070 C   0  0  0  0  0  0  0  0  0  0  0  0
    7.0373    6.1799   21.5640 N   0  0  0  0  0  0  0  0  0  0  0  0
    8.3645    5.5788   21.7004 C   0  0  0  0  0  0  0  0  0  0  0  0
    8.7233    4.4544   20.7314 C   0  0  0  0  0  0  0  0  0  0  0  0
    6.8384    7.0940   24.5884 C   0  0  0  0  0  0  0  0  0  0  0  0
    7.8214    7.7979   25.4889 C   0  0  0  0  0  0  0  0  0  0  0  0
    7.9231    9.1982   25.6332 C   0  0  0  0  0  0  0  0  0  0  0  0
    8.9967    9.7549   26.3546 C   0  0  0  0  0  0  0  0  0  0  0  0
    9.9341    8.8850   26.9454 C   0  0  0  0  0  0  0  0  0  0  0  0
    9.7720    7.4830   26.8490 C   0  0  0  0  0  0  0  0  0  0  0  0
    8.7189    6.9497   26.1196 C   0  0  0  0  0  0  0  0  0  0  0  0
    9.6551    3.4791   21.1201 C   0  0  0  0  0  0  0  0  0  0  0  0
   10.1131    2.4946   20.2292 C   0  0  0  0  0  0  0  0  0  0  0  0
    9.6051    2.4783   18.9196 C   0  0  0  0  0  0  0  0  0  0  0  0
    8.6649    3.4406   18.5024 C   0  0  0  0  0  0  0  0  0  0  0  0
    8.2236    4.4169   19.4209 C   0  0  0  0  0  0  0  0  0  0  0  0
   10.6374    6.5176   27.5041 C   0  0  0  0  0  0  0  0  0  0  0  0
   11.9499    6.7075   27.6560 N   0  0  0  0  0  0  0  0  0  0  0  0
   11.3662    1.3696   20.7291 Cl  0  0  0  0  0  0  0  0  0  0  0  0
    8.0849    3.4866   16.8382 Cl  0  0  0  0  0  0  0  0  0  0  0  0
    7.5851    8.1905   20.7127 O   0  0  0  0  0  0  0  0  0  0  0  0
   10.0475    5.3968   27.9011 N   0  0  0  0  0  0  0  0  0  0  0  0
    3.0093    9.6551   26.8981 H   0  0  0  0  0  0  0  0  0  0  0  0
    5.0626    8.4400   26.3734 H   0  0  0  0  0  0  0  0  0  0  0  0
    1.7114   10.6294   25.0632 H   0  0  0  0  0  0  0  0  0  0  0  0
    4.7076    9.3799   21.0323 H   0  0  0  0  0  0  0  0  0  0  0  0
    2.7341   10.5326   21.5037 H   0  0  0  0  0  0  0  0  0  0  0  0
    2.2257   11.7556   22.6434 H   0  0  0  0  0  0  0  0  0  0  0  0
    1.2698   10.3085   22.4302 H   0  0  0  0  0  0  0  0  0  0  0  0
    6.2382    5.6070   21.5139 H   0  0  0  0  0  0  0  0  0  0  0  0
    8.4393    5.1852   22.6925 H   0  0  0  0  0  0  0  0  0  0  0  0
    9.0500    6.3684   21.4732 H   0  0  0  0  0  0  0  0  0  0  0  0
    7.3862    6.4544   23.9283 H   0  0  0  0  0  0  0  0  0  0  0  0
    6.1684    6.5552   25.2254 H   0  0  0  0  0  0  0  0  0  0  0  0
    7.2110    9.8138   25.2102 H   0  0  0  0  0  0  0  0  0  0  0  0
    9.0946   10.7779   26.4485 H   0  0  0  0  0  0  0  0  0  0  0  0
   10.7449    9.2733   27.4522 H   0  0  0  0  0  0  0  0  0  0  0  0
    8.6042    5.9266   26.0468 H   0  0  0  0  0  0  0  0  0  0  0  0
   10.0138    3.4857   22.0877 H   0  0  0  0  0  0  0  0  0  0  0  0
    9.9238    1.7543   18.2568 H   0  0  0  0  0  0  0  0  0  0  0  0
    7.5227    5.1138   19.1241 H   0  0  0  0  0  0  0  0  0  0  0  0
   12.3640    7.5478   27.3533 H   0  0  0  0  0  0  0  0  0  0  0  0
    9.0777    5.2806   27.7780 H   0  0  0  0  0  0  0  0  0  0  0  0
   10.5799    4.6816   28.3187 H   0  0  0  0  0  0  0  0  0  0  0  0
  1  2  4  0
  2  3  4  0
  3  4  4  0
  4  5  4  0
  1  6  4  0
  5  6  4  0
  3  7  4  0
  7  8  4  0
  4  9  4  0
  8  9  4  0
  5 10  1  0
  8 11  1  0
 11 12  1  0
 12 13  1  0
 13 14  1  0
  7 15  1  0
 15 16  1  0
 16 17  4  0
 17 18  4  0
 18 19  4  0
 19 20  4  0
 16 21  4  0
 20 21  4  0
 14 22  4  0
 22 23  4  0
 23 24  4  0
 24 25  4  0
 14 26  4  0
 25 26  4  0
 20 27  1  0
 27 28  2  3
 23 29  1  0
 25 30  1  0
 11 31  2  0
 27 32  1  0
  1 33  1  0
  2 34  1  0
  6 35  1  0
  9 36  1  0
 10 37  1  0
 10 38  1  0
 10 39  1  0
 12 40  1  0
 13 41  1  0
 13 42  1  0
 15 43  1  0
 15 44  1  0
 17 45  1  0
 18 46  1  0
 19 47  1  0
 21 48  1  0
 22 49  1  0
 24 50  1  0
 26 51  1  0
 28 52  1  0
 32 53  1  0
 32 54  1  0
M  CHG  1   7   1
M  END
