@<TRIPOS>MOLECULE
1LPZ_CMB_B_301
 54 57 0 0 0
SMALL
GASTEIGER

@<TRIPOS>ATOM
      1 C          -1.6240   -3.7399    4.0173 C.ar    1  UNL1       -0.0595
      2 C          -1.9902   -3.1798    2.7822 C.ar    1  UNL1       -0.0376
      3 C          -0.9820   -2.6341    1.9782 C.ar    1  UNL1        0.0502
      4 C           0.3301   -2.6391    2.3874 C.ar    1  UNL1        0.0035
      5 C           0.7278   -3.1907    3.6116 C.ar    1  UNL1       -0.0413
      6 C          -0.2765   -3.7465    4.4312 C.ar    1  UNL1       -0.0582
      7 N          -1.1044   -2.0381    0.7689 N.ar    1  UNL1       -0.3318
      8 C           0.1570   -1.6526    0.4238 C.ar    1  UNL1        0.1057
      9 C           1.0707   -2.0128    1.4085 C.ar    1  UNL1       -0.0237
     10 C           2.1652   -3.1762    4.0432 C.3     1  UNL1       -0.0391
     11 C           0.5287   -0.9396   -0.8141 C.2     1  UNL1        0.2608
     12 N           1.5865    0.0301   -0.7980 N.am    1  UNL1       -0.3060
     13 C           2.0297    0.7238   -2.0049 C.3     1  UNL1        0.0373
     14 C           2.7917   -0.2189   -2.8957 C.ar    1  UNL1       -0.0276
     15 C          -2.3574   -1.6893    0.0841 C.3     1  UNL1        0.0490
     16 C          -2.7361   -0.2636    0.3907 C.ar    1  UNL1       -0.0269
     17 C          -3.3175    0.0596    1.6252 C.ar    1  UNL1       -0.0568
     18 C          -3.6173    1.3868    1.9357 C.ar    1  UNL1       -0.0606
     19 C          -3.3354    2.4048    1.0217 C.ar    1  UNL1       -0.0469
     20 C          -2.7545    2.1039   -0.2233 C.ar    1  UNL1        0.0650
     21 C          -2.4560    0.7622   -0.5275 C.ar    1  UNL1       -0.0420
     22 C           4.0567   -0.6855   -2.5033 C.ar    1  UNL1       -0.0386
     23 C           4.7593   -1.5843   -3.3134 C.ar    1  UNL1        0.0427
     24 C           4.2008   -2.0240   -4.5181 C.ar    1  UNL1       -0.0250
     25 C           2.9394   -1.5669   -4.9136 C.ar    1  UNL1        0.0427
     26 C           2.2352   -0.6680   -4.1048 C.ar    1  UNL1       -0.0386
     27 C          -2.4305    3.1800   -1.1936 C.2     1  UNL1        0.3081
     28 N          -1.4786    2.9994   -2.0553 N.2     1  UNL1       -0.0994
     29 CL          6.3381   -2.1640   -2.8152 Cl      1  UNL1       -0.0835
     30 CL          2.2377   -2.1249   -6.4214 Cl      1  UNL1       -0.0835
     31 O          -0.0682   -1.2011   -1.8923 O.2     1  UNL1       -0.2686
     32 N          -3.1625    4.4121   -1.1988 N.pl3   1  UNL1       -0.2466
     33 H          -2.3838   -4.1693    4.6574 H       1  UNL1        0.0618
     34 H          -3.0273   -3.1832    2.4793 H       1  UNL1        0.0638
     35 H          -0.0220   -4.1823    5.3892 H       1  UNL1        0.0620
     36 H           2.1393   -1.8406    1.4069 H       1  UNL1        0.0646
     37 H           2.5107   -2.1268    4.1519 H       1  UNL1        0.0278
     38 H           2.7899   -3.6886    3.2816 H       1  UNL1        0.0278
     39 H           2.3012   -3.6959    5.0154 H       1  UNL1        0.0278
     40 H           2.0313    0.2884    0.1114 H       1  UNL1        0.1494
     41 H           2.6954    1.5678   -1.7212 H       1  UNL1        0.0512
     42 H           1.1523    1.1624   -2.5289 H       1  UNL1        0.0512
     43 H          -2.2560   -1.8466   -1.0088 H       1  UNL1        0.0541
     44 H          -3.1780   -2.3679    0.3944 H       1  UNL1        0.0541
     45 H          -3.5330   -0.7138    2.3507 H       1  UNL1        0.0621
     46 H          -4.0588    1.6291    2.8938 H       1  UNL1        0.0618
     47 H          -3.5484    3.4266    1.3061 H       1  UNL1        0.0626
     48 H          -2.0133    0.5147   -1.4836 H       1  UNL1        0.0629
     49 H           4.4916   -0.3540   -1.5680 H       1  UNL1        0.0635
     50 H           4.7444   -2.7208   -5.1438 H       1  UNL1        0.0647
     51 H           1.2562   -0.3247   -4.4163 H       1  UNL1        0.0635
     52 H          -1.2232    3.7302   -2.7567 H       1  UNL1        0.3633
     53 H          -4.0268    4.5347   -0.6273 H       1  UNL1        0.2884
     54 H          -2.8867    5.1907   -1.8381 H       1  UNL1        0.2884
@<TRIPOS>BOND
     1     1     2   ar
     2     2     3   ar
     3     3     4   ar
     4     4     5   ar
     5     1     6   ar
     6     5     6   ar
     7     3     7   ar
     8     7     8   ar
     9     4     9   ar
    10     8     9   ar
    11     5    10    1
    12     8    11    1
    13    11    12   am
    14    12    13    1
    15    13    14    1
    16     7    15    1
    17    15    16    1
    18    16    17   ar
    19    17    18   ar
    20    18    19   ar
    21    19    20   ar
    22    16    21   ar
    23    20    21   ar
    24    14    22   ar
    25    22    23   ar
    26    23    24   ar
    27    24    25   ar
    28    14    26   ar
    29    25    26   ar
    30    20    27    1
    31    27    28    2
    32    23    29    1
    33    25    30    1
    34    11    31    2
    35    27    32    1
    36     1    33    1
    37     2    34    1
    38     6    35    1
    39     9    36    1
    40    10    37    1
    41    10    38    1
    42    10    39    1
    43    12    40    1
    44    13    41    1
    45    13    42    1
    46    15    43    1
    47    15    44    1
    48    17    45    1
    49    18    46    1
    50    19    47    1
    51    21    48    1
    52    22    49    1
    53    24    50    1
    54    26    51    1
    55    28    52    1
    56    32    53    1
    57    32    54    1
