7TH4_FFO_B_303
     RDKit          3D

 34 36  0  0  0  0  0  0  0  0999 V2000
   -2.0548  -11.4794  -23.8665 N   0  0  0  0  0  0  0  0  0  0  0  0
   -2.4119  -10.1775  -24.0009 C   0  0  0  0  0  0  0  0  0  0  0  0
   -3.2897   -9.7344  -25.0284 N   0  0  0  0  0  0  0  0  0  0  0  0
   -1.9394   -9.2276  -23.1501 N   0  0  0  0  0  0  0  0  0  0  0  0
   -1.0912   -9.6016  -22.1460 C   0  0  0  0  0  0  0  0  0  0  0  0
   -0.6802   -8.6991  -21.3913 O   0  0  0  0  0  0  0  0  0  0  0  0
   -0.7052  -10.9007  -21.9713 C   0  0  0  0  0  0  0  0  0  0  0  0
    0.1889  -11.3249  -20.9182 N   0  0  0  0  0  0  0  0  0  0  0  0
    0.9873  -12.4741  -21.1943 C   0  0  2  0  0  0  0  0  0  0  0  0
    0.0136  -13.6117  -21.5503 C   0  0  0  0  0  0  0  0  0  0  0  0
   -0.7762  -13.1737  -22.6697 N   0  0  0  0  0  0  0  0  0  0  0  0
   -1.2121  -11.8422  -22.8666 C   0  0  0  0  0  0  0  0  0  0  0  0
    1.9211  -12.9229  -20.1174 C   0  0  0  0  0  0  0  0  0  0  0  0
    1.6571  -14.2005  -19.5416 N   0  0  0  0  0  0  0  0  0  0  0  0
   -1.8297  -14.5837  -17.1420 C   0  0  0  0  0  0  0  0  0  0  0  0
   -0.8571  -13.6703  -16.8091 C   0  0  0  0  0  0  0  0  0  0  0  0
    0.2819  -13.5505  -17.5996 C   0  0  0  0  0  0  0  0  0  0  0  0
    0.4796  -14.3230  -18.7229 C   0  0  0  0  0  0  0  0  0  0  0  0
   -0.5213  -15.2362  -19.0324 C   0  0  0  0  0  0  0  0  0  0  0  0
   -1.6498  -15.3707  -18.2686 C   0  0  0  0  0  0  0  0  0  0  0  0
   -3.0539  -14.7815  -16.3784 C   0  0  0  0  0  0  0  0  0  0  0  0
   -3.3815  -13.9854  -15.4312 O   0  0  0  0  0  0  0  0  0  0  0  0
   -3.9498  -15.8475  -16.6256 N   0  0  0  0  0  0  0  0  0  0  0  0
   -5.2624  -15.8605  -15.8927 C   0  0  1  0  0  0  0  0  0  0  0  0
   -6.2372  -15.4250  -16.9184 C   0  0  0  0  0  0  0  0  0  0  0  0
   -6.0735  -14.1531  -17.6296 C   0  0  0  0  0  0  0  0  0  0  0  0
   -7.0230  -13.8924  -18.7077 C   0  0  0  0  0  0  0  0  0  0  0  0
   -7.9167  -14.7858  -18.9213 O   0  0  0  0  0  0  0  0  0  0  0  0
   -6.9541  -12.7287  -19.4583 O   0  0  0  0  0  0  0  0  0  0  0  0
   -5.3971  -17.2368  -15.3903 C   0  0  0  0  0  0  0  0  0  0  0  0
   -6.0626  -17.5782  -14.3817 O   0  0  0  0  0  0  0  0  0  0  0  0
   -4.7541  -18.3204  -16.0432 O   0  0  0  0  0  0  0  0  0  0  0  0
    0.1663  -10.5744  -19.7333 C   0  0  0  0  0  0  0  0  0  0  0  0
    1.1900  -10.3879  -18.9861 O   0  0  0  0  0  0  0  0  0  0  0  0
  1  2  2  0
  2  3  1  0
  2  4  1  0
  4  5  1  0
  5  6  2  0
  5  7  1  0
  7  8  1  0
  8  9  1  0
  9 10  1  0
 10 11  1  0
  1 12  1  0
  7 12  2  0
 11 12  1  0
  9 13  1  1
 13 14  1  0
 15 16  2  0
 16 17  1  0
 14 18  1  0
 17 18  2  0
 18 19  1  0
 15 20  1  0
 19 20  2  0
 15 21  1  0
 21 22  2  0
 21 23  1  0
 23 24  1  0
 24 25  1  6
 25 26  1  0
 26 27  1  0
 27 28  2  0
 27 29  1  0
 24 30  1  0
 30 31  2  0
 30 32  1  0
  8 33  1  0
 33 34  2  0
M  END
$$$$
