6YJA_2BA_B_201
     RDKit          3D

 44 50  0  0  0  0  0  0  0  0999 V2000
    1.4768   -0.4413   13.2689 P   0  0  2  0  0  5  0  0  0  0  0  0
    0.8565   -0.6708   14.6248 O   0  0  0  0  0  0  0  0  0  0  0  0
    0.1636   -0.4084   12.1711 O   0  0  0  0  0  0  0  0  0  0  0  0
    2.3964   -1.7906   12.8278 O   0  0  0  0  0  0  0  0  0  0  0  0
    1.5934   -2.9085   13.0512 C   0  0  0  0  0  0  0  0  0  0  0  0
    2.0345   -3.4378   14.4227 C   0  0  1  0  0  0  0  0  0  0  0  0
    1.3609   -4.6099   14.6199 O   0  0  0  0  0  0  0  0  0  0  0  0
    3.5030   -3.7603   14.2881 C   0  0  1  0  0  0  0  0  0  0  0  0
    4.0625   -3.7710   15.5400 O   0  0  0  0  0  0  0  0  0  0  0  0
    3.3968   -5.2203   13.8239 C   0  0  1  0  0  0  0  0  0  0  0  0
    4.5615   -5.9274   14.0900 O   0  0  0  0  0  0  0  0  0  0  0  0
    2.2212   -5.6735   14.6263 C   0  0  2  0  0  0  0  0  0  0  0  0
    1.5717   -6.8288   13.9895 N   0  0  0  0  0  0  0  0  0  0  0  0
    0.3594   -6.7964   13.4379 C   0  0  0  0  0  0  0  0  0  0  0  0
    0.0632   -8.0269   12.9427 N   0  0  0  0  0  0  0  0  0  0  0  0
    1.1028   -8.8069   13.1969 C   0  0  0  0  0  0  0  0  0  0  0  0
    1.3551  -10.1512   12.9225 C   0  0  0  0  0  0  0  0  0  0  0  0
    0.3613  -10.9311   12.2357 N   0  0  0  0  0  0  0  0  0  0  0  0
    2.5352  -10.7054   13.3075 N   0  0  0  0  0  0  0  0  0  0  0  0
    3.4597   -9.9601   13.9523 C   0  0  0  0  0  0  0  0  0  0  0  0
    3.2162   -8.6465   14.2218 N   0  0  0  0  0  0  0  0  0  0  0  0
    2.0552   -8.0766   13.8502 C   0  0  0  0  0  0  0  0  0  0  0  0
    4.9005   -2.3989   15.9726 P   0  0  2  0  0  5  0  0  0  0  0  0
    6.3815   -2.7103   16.1215 O   0  0  0  0  0  0  0  0  0  0  0  0
    4.3517   -1.9523   17.5308 O   0  0  0  0  0  0  0  0  0  0  0  0
    4.6167   -1.0674   14.9790 O   0  0  0  0  0  0  0  0  0  0  0  0
    4.6083    0.1266   15.6987 C   0  0  0  0  0  0  0  0  0  0  0  0
    3.5181    1.0204   15.1518 C   0  0  1  0  0  0  0  0  0  0  0  0
    3.6499    2.3347   15.5928 O   0  0  0  0  0  0  0  0  0  0  0  0
    3.5456    1.0603   13.6340 C   0  0  1  0  0  0  0  0  0  0  0  0
    2.2703    1.0019   13.0994 O   0  0  0  0  0  0  0  0  0  0  0  0
    3.9537    2.5311   13.4257 C   0  0  1  0  0  0  0  0  0  0  0  0
    3.4791    2.9343   12.1920 O   0  0  0  0  0  0  0  0  0  0  0  0
    3.0935    3.0645   14.5744 C   0  0  2  0  0  0  0  0  0  0  0  0
    3.1926    4.4844   14.7386 N   0  0  0  0  0  0  0  0  0  0  0  0
    2.2060    5.2791   15.2085 C   0  0  0  0  0  0  0  0  0  0  0  0
    2.7205    6.5220   15.1970 N   0  0  0  0  0  0  0  0  0  0  0  0
    3.9733    6.5207   14.7424 C   0  0  0  0  0  0  0  0  0  0  0  0
    4.8863    7.5387   14.5548 C   0  0  0  0  0  0  0  0  0  0  0  0
    4.5369    8.8846   14.8711 N   0  0  0  0  0  0  0  0  0  0  0  0
    6.1155    7.2169   14.0636 N   0  0  0  0  0  0  0  0  0  0  0  0
    6.4305    5.9391   13.7692 C   0  0  0  0  0  0  0  0  0  0  0  0
    5.5170    4.9694   13.9639 N   0  0  0  0  0  0  0  0  0  0  0  0
    4.2824    5.2038   14.4447 C   0  0  0  0  0  0  0  0  0  0  0  0
  1  2  2  0
  1  3  1  6
  1  4  1  0
  5  4  1  6
  6  5  1  0
  6  7  1  6
  6  8  1  0
  8  9  1  1
  8 10  1  0
 10 11  1  1
  7 12  1  0
 10 12  1  0
 12 13  1  6
 13 14  1  0
 14 15  2  0
 15 16  1  0
 16 17  2  0
 17 18  1  0
 17 19  1  0
 19 20  2  0
 20 21  1  0
 13 22  1  0
 16 22  1  0
 21 22  2  0
  9 23  1  0
 23 24  2  0
 23 25  1  1
 23 26  1  0
 27 26  1  6
 28 27  1  0
 28 29  1  1
 28 30  1  0
  1 31  1  0
 30 31  1  6
 30 32  1  0
 32 33  1  6
 29 34  1  0
 32 34  1  0
 34 35  1  1
 35 36  1  0
 36 37  2  0
 37 38  1  0
 38 39  2  0
 39 40  1  0
 39 41  1  0
 41 42  2  0
 42 43  1  0
 35 44  1  0
 38 44  1  0
 43 44  2  0
M  END
$$$$
