@<TRIPOS>MOLECULE
1Q1G_MTI_F_306
 37 39 0 0 0
SMALL
GASTEIGER

@<TRIPOS>ATOM
      1 C          -1.9346    1.7973    4.3958 C.3     1  UNL1       -0.0179
      2 S          -0.9850    2.3910    2.9579 S.3     1  UNL1       -0.1585
      3 C           0.1418    0.9519    2.8609 C.3     1  UNL1        0.0389
      4 C          -0.4722   -0.1861    2.0216 C.3     1  UNL1        0.0164
      5 N          -0.7135    0.2116    0.6282 N.4     1  UNL1        0.2391
      6 C          -0.0062   -2.1271    0.6994 C.3     1  UNL1        0.1329
      7 O          -0.9867   -3.0853    1.0104 O.3     1  UNL1       -0.3830
      8 C           0.4419   -1.4019    1.9618 C.3     1  UNL1        0.1296
      9 O           0.2998   -2.1945    3.1124 O.3     1  UNL1       -0.3834
     10 C          -0.6104   -1.0167   -0.1851 C.3     1  UNL1        0.0362
     11 C           0.2194   -0.7890   -1.4279 C.ar    1  UNL1        0.0460
     12 C           1.5712   -0.4434   -1.4981 C.ar    1  UNL1        0.0130
     13 N           1.9628   -0.3079   -2.7888 N.ar    1  UNL1       -0.3547
     14 C           0.8694   -0.5620   -3.5289 C.ar    1  UNL1        0.1306
     15 C           0.7230   -0.5543   -4.9103 C.ar    1  UNL1        0.2754
     16 O           1.6934   -0.2871   -5.6681 O.2     1  UNL1       -0.2656
     17 N          -0.5095   -0.8458   -5.4266 N.ar    1  UNL1       -0.3117
     18 C          -1.5710   -1.1364   -4.6059 C.ar    1  UNL1        0.0967
     19 N          -1.4190   -1.1411   -3.2472 N.ar    1  UNL1       -0.2352
     20 C          -0.1971   -0.8535   -2.7384 C.ar    1  UNL1        0.1040
     21 H          -1.2652    1.6754    5.2726 H       1  UNL1        0.0341
     22 H          -2.4304    0.8331    4.1641 H       1  UNL1        0.0341
     23 H          -2.7140    2.5459    4.6454 H       1  UNL1        0.0341
     24 H           0.3865    0.5844    3.8805 H       1  UNL1        0.0432
     25 H           1.0925    1.2917    2.3970 H       1  UNL1        0.0432
     26 H          -1.4385   -0.4955    2.4833 H       1  UNL1        0.0885
     27 H          -1.6711    0.6262    0.5363 H       1  UNL1        0.2025
     28 H          -0.0117    0.9294    0.3274 H       1  UNL1        0.2025
     29 H           0.8727   -2.6294    0.2291 H       1  UNL1        0.0682
     30 H          -1.0888   -3.6557    0.2041 H       1  UNL1        0.2102
     31 H           1.5024   -1.0745    1.8422 H       1  UNL1        0.0679
     32 H           1.0317   -2.8644    3.0821 H       1  UNL1        0.2102
     33 H          -1.6326   -1.3240   -0.5077 H       1  UNL1        0.0931
     34 H           2.2280   -0.2963   -0.6505 H       1  UNL1        0.0812
     35 H           2.9160   -0.0545   -3.1314 H       1  UNL1        0.1655
     36 H          -0.6513   -0.8485   -6.4619 H       1  UNL1        0.1698
     37 H          -2.5381   -1.3638   -5.0347 H       1  UNL1        0.1028
@<TRIPOS>UNITY_ATOM_ATTR
5 1
charge 1
@<TRIPOS>BOND
     1     1     2    1
     2     2     3    1
     3     4     3    1
     4     4     5    1
     5     6     7    1
     6     4     8    1
     7     6     8    1
     8     8     9    1
     9     5    10    1
    10     6    10    1
    11    10    11    1
    12    11    12   ar
    13    12    13   ar
    14    13    14   ar
    15    14    15   ar
    16    15    16    2
    17    15    17   ar
    18    17    18   ar
    19    18    19   ar
    20    11    20   ar
    21    14    20   ar
    22    19    20   ar
    23     1    21    1
    24     1    22    1
    25     1    23    1
    26     3    24    1
    27     3    25    1
    28     4    26    1
    29     5    27    1
    30     5    28    1
    31     6    29    1
    32     7    30    1
    33     8    31    1
    34     9    32    1
    35    10    33    1
    36    12    34    1
    37    13    35    1
    38    17    36    1
    39    18    37    1
