6ZCY_QF8_A_701
     RDKit          3D

 33 37  0  0  0  0  0  0  0  0999 V2000
   -0.7861    0.5838   12.9119 C   0  0  0  0  0  0  0  0  0  0  0  0
    0.1661    1.5691   12.6094 C   0  0  0  0  0  0  0  0  0  0  0  0
    1.2981    1.1504   13.2736 C   0  0  0  0  0  0  0  0  0  0  0  0
    7.2517    4.1032   13.5049 N   0  0  0  0  0  0  0  0  0  0  0  0
    4.1916   -1.1775   15.4561 C   0  0  0  0  0  0  0  0  0  0  0  0
    6.0975    0.3921   14.9497 C   0  0  0  0  0  0  0  0  0  0  0  0
    7.3575    0.8446   15.2724 C   0  0  0  0  0  0  0  0  0  0  0  0
    7.8437    2.0778   14.8380 C   0  0  0  0  0  0  0  0  0  0  0  0
    7.0588    2.8967   14.0559 C   0  0  0  0  0  0  0  0  0  0  0  0
    5.7950    2.4648   13.7207 C   0  0  0  0  0  0  0  0  0  0  0  0
    5.3371    1.2465   14.1597 C   0  0  0  0  0  0  0  0  0  0  0  0
    5.2356    3.4614   12.9453 C   0  0  0  0  0  0  0  0  0  0  0  0
    8.4404    4.9135   13.6075 C   0  0  0  0  0  0  0  0  0  0  0  0
    3.9033    3.4710   12.3472 C   0  0  0  0  0  0  0  0  0  0  0  0
    0.9612    4.6927   12.5837 C   0  0  0  0  0  0  0  0  0  0  0  0
    1.0263    6.0303   11.9194 C   0  0  0  0  0  0  0  0  0  0  0  0
    0.5996    4.5147   10.2480 C   0  0  0  0  0  0  0  0  0  0  0  0
    3.1453    2.5009   12.5327 O   0  0  0  0  0  0  0  0  0  0  0  0
    3.4921    4.5784   11.5674 N   0  0  0  0  0  0  0  0  0  0  0  0
    2.1327    4.6476   11.0844 C   0  0  0  0  0  0  0  0  0  0  0  0
    6.1674    4.4523   12.8374 N   0  0  0  0  0  0  0  0  0  0  0  0
    5.5530   -0.8403   15.3571 N   0  0  0  0  0  0  0  0  0  0  0  0
    3.6604   -2.1210   16.2253 N   0  0  0  0  0  0  0  0  0  0  0  0
    2.3643   -2.4395   16.3168 C   0  0  0  0  0  0  0  0  0  0  0  0
    1.4722   -1.7328   15.5463 C   0  0  0  0  0  0  0  0  0  0  0  0
    3.2943   -0.4759   14.6894 N   0  0  0  0  0  0  0  0  0  0  0  0
    1.9847   -0.7438   14.7333 C   0  0  0  0  0  0  0  0  0  0  0  0
    1.0483   -0.0159   13.9378 N   0  0  0  0  0  0  0  0  0  0  0  0
   -0.2019   -0.3249   13.7009 N   0  0  0  0  0  0  0  0  0  0  0  0
   -2.1969    0.5714   12.4277 C   0  0  0  0  0  0  0  0  0  0  0  0
   -0.0524    2.7014   11.7971 N   0  0  0  0  0  0  0  0  0  0  0  0
    0.9337    3.6916   11.4557 C   0  0  2  0  0  0  0  0  0  0  0  0
    1.2497    5.7817   10.5091 N   0  0  0  0  0  0  0  0  0  0  0  0
  1  2  1  0
  2  3  2  0
  6  7  2  0
  7  8  1  0
  4  9  1  0
  8  9  2  0
  9 10  1  0
 10 11  2  0
  6 11  1  0
 10 12  1  0
  4 13  1  0
 12 14  1  0
 15 16  1  0
 14 18  2  0
 14 19  1  0
 19 20  1  0
 12 21  2  0
  4 21  1  0
  6 22  1  0
  5 22  1  0
  5 23  2  0
 23 24  1  0
 24 25  2  0
  5 26  1  0
 26 27  2  0
 25 27  1  0
  3 28  1  0
 27 28  1  0
  1 29  2  0
 28 29  1  0
  1 30  1  0
  2 31  1  0
 15 32  1  0
 32 31  1  1
 17 32  1  0
 16 33  1  0
 17 33  1  0
M  END
$$$$
