7QPP_VDX_A_501
     RDKit          3D

 30 32  0  0  0  0  0  0  0  0999 V2000
   13.0746   21.7116   62.1139 O   0  0  0  0  0  0  0  0  0  0  0  0
   27.3955   27.8540   61.5898 O   0  0  0  0  0  0  0  0  0  0  0  0
   13.3705   22.0856   58.4408 C   0  0  1  0  0  0  0  0  0  0  0  0
   13.2063   22.5927   59.8676 C   0  0  0  0  0  0  0  0  0  0  0  0
   13.6379   21.5423   60.8661 C   0  0  1  0  0  0  0  0  0  0  0  0
   15.1286   21.3449   60.9109 C   0  0  0  0  0  0  0  0  0  0  0  0
   15.6136   21.4984   59.4809 C   0  0  0  0  0  0  0  0  0  0  0  0
   16.8694   21.7864   59.2036 C   0  0  0  0  0  0  0  0  0  0  0  0
   17.9118   22.1430   60.1163 C   0  0  0  0  0  0  0  0  0  0  0  0
   19.2084   22.2190   59.7864 C   0  0  0  0  0  0  0  0  0  0  0  0
   19.7263   21.6914   58.4940 C   0  0  0  0  0  0  0  0  0  0  0  0
   14.6647   21.2955   58.3883 C   0  0  0  0  0  0  0  0  0  0  0  0
   21.1891   21.4000   58.5515 C   0  0  0  0  0  0  0  0  0  0  0  0
   22.0482   22.4266   59.2148 C   0  0  0  0  0  0  0  0  0  0  0  0
   21.3466   23.5108   59.9630 C   0  0  1  0  0  0  0  0  0  0  0  0
   20.1857   22.8233   60.7058 C   0  0  1  0  0  0  0  0  0  0  0  0
   19.6397   24.0463   61.4035 C   0  0  0  0  0  0  0  0  0  0  0  0
   20.9388   24.6114   62.0085 C   0  0  0  0  0  0  0  0  0  0  0  0
   22.0876   24.0931   61.1316 C   0  0  2  0  0  0  0  0  0  0  0  0
   20.8223   24.6363   59.1049 C   0  0  0  0  0  0  0  0  0  0  0  0
   14.9322   20.4692   57.4208 C   0  0  0  0  0  0  0  0  0  0  0  0
   23.0633   25.1680   60.8308 C   0  0  2  0  0  0  0  0  0  0  0  0
   24.2206   24.5760   60.0008 C   0  0  0  0  0  0  0  0  0  0  0  0
   23.7316   25.8565   61.9668 C   0  0  0  0  0  0  0  0  0  0  0  0
   24.7381   26.8882   61.6093 C   0  0  0  0  0  0  0  0  0  0  0  0
   25.4286   27.4211   62.8932 C   0  0  0  0  0  0  0  0  0  0  0  0
   26.4984   28.4164   62.5021 C   0  0  2  0  0  0  0  0  0  0  0  0
   25.8394   29.6108   61.8876 C   0  0  0  0  0  0  0  0  0  0  0  0
   27.2285   28.8480   63.7578 C   0  0  0  0  0  0  0  0  0  0  0  0
   12.3140   21.2770   58.1034 O   0  0  0  0  0  0  0  0  0  0  0  0
  3  4  1  0
  5  1  1  1
  4  5  1  0
  5  6  1  0
  6  7  1  0
  7  8  2  0
  8  9  1  0
  9 10  2  0
 10 11  1  0
  3 12  1  0
  7 12  1  0
 11 13  1  0
 13 14  1  0
 14 15  1  0
 10 16  1  0
 15 16  1  0
 16 17  1  6
 17 18  1  0
 15 19  1  0
 19 18  1  1
 15 20  1  6
 12 21  2  0
 19 22  1  0
 22 23  1  6
 22 24  1  0
 24 25  1  0
 25 26  1  0
  2 27  1  0
 26 27  1  0
 27 28  1  6
 27 29  1  0
  3 30  1  1
M  END
$$$$
