1R55_097_A_518
     RDKit          3D

 23 22  0  0  0  0  0  0  0  0999 V2000
   14.2896   10.6099   28.2892 N   0  0  0  0  0  0  0  0  0  0  0  0
   10.4291    9.1965   26.8859 C   0  0  0  0  0  0  0  0  0  0  0  0
   16.1507    8.2815   27.6989 O   0  0  0  0  0  0  0  0  0  0  0  0
   13.5855   11.6223   27.7599 C   0  0  0  0  0  0  0  0  0  0  0  0
    8.6289   12.3599   28.4270 O   0  0  0  0  0  0  0  0  0  0  0  0
   15.7267   10.6110   28.0560 C   0  0  1  0  0  0  0  0  0  0  0  0
   16.4682   10.6457   29.3987 C   0  0  1  0  0  0  0  0  0  0  0  0
   16.1345    9.3772   30.2069 C   0  0  0  0  0  0  0  0  0  0  0  0
   17.9848   10.7208   29.1554 C   0  0  0  0  0  0  0  0  0  0  0  0
   16.1645    9.4178   27.2235 C   0  0  0  0  0  0  0  0  0  0  0  0
   17.0065    8.6625   25.0968 C   0  0  0  0  0  0  0  0  0  0  0  0
    9.5878   12.5253   29.4002 N   0  0  0  0  0  0  0  0  0  0  0  0
   10.4972   13.4296   29.0046 C   0  0  0  0  0  0  0  0  0  0  0  0
   10.1917   14.5704   28.6664 O   0  0  0  0  0  0  0  0  0  0  0  0
   11.9335   12.9861   29.0109 C   0  0  1  0  0  0  0  0  0  0  0  0
   12.4314   12.8864   30.3365 O   0  0  0  0  0  0  0  0  0  0  0  0
   12.1437   11.6838   28.2401 C   0  0  1  0  0  0  0  0  0  0  0  0
   11.1888   11.5983   27.0415 C   0  0  0  0  0  0  0  0  0  0  0  0
   11.2778   10.2820   26.2536 C   0  0  2  0  0  0  0  0  0  0  0  0
   10.8333   10.5040   24.8087 C   0  0  0  0  0  0  0  0  0  0  0  0
   14.0276   12.4546   26.9679 O   0  0  0  0  0  0  0  0  0  0  0  0
   16.0095   11.8882   30.1826 C   0  0  0  0  0  0  0  0  0  0  0  0
   16.5282    9.7348   25.9647 N   0  0  0  0  0  0  0  0  0  0  0  0
  1  4  1  0
  6  1  1  1
  6  7  1  0
  7  8  1  1
  7  9  1  0
  3 10  2  0
  6 10  1  0
  5 12  1  0
 12 13  1  0
 13 14  2  0
 13 15  1  0
 15 16  1  1
  4 17  1  0
 15 17  1  0
 17 18  1  6
 19  2  1  1
 18 19  1  0
 19 20  1  0
  4 21  2  0
  7 22  1  0
 10 23  1  0
 11 23  1  0
M  END
