7CIJ_G0C_B_601
     RDKit          3D

 40 40  0  0  0  0  0  0  0  0999 V2000
   31.4541    6.0710   52.4345 C   0  0  0  0  0  0  0  0  0  0  0  0
   30.0724    6.3485   52.6107 C   0  0  0  0  0  0  0  0  0  0  0  0
   29.6538    7.6887   52.6213 C   0  0  0  0  0  0  0  0  0  0  0  0
   30.5372    8.6909   52.3930 N   0  0  0  0  0  0  0  0  0  0  0  0
   32.3474    7.1421   52.1954 C   0  0  0  0  0  0  0  0  0  0  0  0
   28.9853    3.9344   49.7961 O   0  0  0  0  0  0  0  0  0  0  0  0
   28.5335    5.4826   50.3128 P   0  0  1  0  0  5  0  0  0  0  0  0
   29.8649    6.5256   50.2223 O   0  0  0  0  0  0  0  0  0  0  0  0
   27.4339    6.0038   49.4156 O   0  0  0  0  0  0  0  0  0  0  0  0
   27.9475    5.4049   51.9155 O   0  0  0  0  0  0  0  0  0  0  0  0
   29.0348    5.2559   52.8057 C   0  0  2  0  0  0  0  0  0  0  0  0
   31.8540    8.4557   52.1649 C   0  0  0  0  0  0  0  0  0  0  0  0
   32.7717    9.6153   51.9246 C   0  0  1  0  0  0  0  0  0  0  0  0
   33.7194    6.9364   52.0123 O   0  0  0  0  0  0  0  0  0  0  0  0
   31.9771    4.6899   52.4944 C   0  0  0  0  0  0  0  0  0  0  0  0
   32.0154    4.0484   53.6205 N   0  0  0  0  0  0  0  0  0  0  0  0
   32.5440    2.6950   53.7279 C   0  0  2  0  0  0  0  0  0  0  0  0
   34.0169    2.7551   54.1389 C   0  0  2  0  0  0  0  0  0  0  0  0
   34.5270    1.4098   54.6691 C   0  0  1  0  0  0  0  0  0  0  0  0
   35.5739    0.5426   53.4414 S   0  0  0  0  0  0  0  0  0  0  0  0
   34.1991   -0.2105   52.5113 C   0  0  2  0  0  0  0  0  0  0  0  0
   28.6154    7.9408   52.7929 H   0  0  0  0  0  0  0  0  0  0  0  0
   28.4297    3.7616   48.9946 H   0  0  0  0  0  0  0  0  0  0  0  0
   30.2436    6.3774   49.3194 H   0  0  0  0  0  0  0  0  0  0  0  0
   28.6419    5.3541   53.8392 H   0  0  0  0  0  0  0  0  0  0  0  0
   29.4694    4.2341   52.7467 H   0  0  0  0  0  0  0  0  0  0  0  0
   33.6622    9.2952   51.3429 H   0  0  0  0  0  0  0  0  0  0  0  0
   32.2379   10.4035   51.3532 H   0  0  0  0  0  0  0  0  0  0  0  0
   33.1158   10.0326   52.8944 H   0  0  0  0  0  0  0  0  0  0  0  0
   34.1358    6.0246   51.8780 H   0  0  0  0  0  0  0  0  0  0  0  0
   32.3790    4.2330   51.5973 H   0  0  0  0  0  0  0  0  0  0  0  0
   32.4478    2.1816   52.7458 H   0  0  0  0  0  0  0  0  0  0  0  0
   31.9605    2.1335   54.4896 H   0  0  0  0  0  0  0  0  0  0  0  0
   34.1585    3.5461   54.9054 H   0  0  0  0  0  0  0  0  0  0  0  0
   34.6234    3.0344   53.2499 H   0  0  0  0  0  0  0  0  0  0  0  0
   35.1278    1.5768   55.5884 H   0  0  0  0  0  0  0  0  0  0  0  0
   33.6635    0.7728   54.9560 H   0  0  0  0  0  0  0  0  0  0  0  0
   33.5347    0.5733   52.0946 H   0  0  0  0  0  0  0  0  0  0  0  0
   33.6162   -0.8863   53.1709 H   0  0  0  0  0  0  0  0  0  0  0  0
   34.6158   -0.8050   51.6726 H   0  0  0  0  0  0  0  0  0  0  0  0
  1  2  2  0
  2  3  1  0
  3  4  2  0
  1  5  1  0
  7  6  1  6
  7  8  1  0
  7  9  2  0
  7 10  1  0
  2 11  1  0
 10 11  1  0
  5 12  2  0
  4 12  1  0
 12 13  1  0
  5 14  1  0
  1 15  1  0
 15 16  2  0
 16 17  1  0
 17 18  1  0
 18 19  1  0
 19 20  1  0
 20 21  1  0
  3 22  1  0
  6 23  1  0
  8 24  1  0
 11 25  1  1
 11 26  1  0
 13 27  1  6
 13 28  1  0
 13 29  1  0
 14 30  1  0
 15 31  1  0
 17 32  1  6
 17 33  1  0
 18 34  1  1
 18 35  1  0
 19 36  1  1
 19 37  1  0
 21 38  1  6
 21 39  1  0
 21 40  1  0
M  END
