7AN5_RDH_A_301
     RDKit          3D

 23 23  0  0  0  0  0  0  0  0999 V2000
   11.6438   -9.0242   19.6121 C   0  0  0  0  0  0  0  0  0  0  0  0
   12.2835   -8.4586   20.6351 C   0  0  0  0  0  0  0  0  0  0  0  0
   12.4918   -6.2664   21.8012 C   0  0  0  0  0  0  0  0  0  0  0  0
   11.8111   -5.3002   22.5487 C   0  0  0  0  0  0  0  0  0  0  0  0
   12.5127   -4.2670   23.1729 C   0  0  0  0  0  0  0  0  0  0  0  0
   13.9012   -4.1839   23.0460 C   0  0  0  0  0  0  0  0  0  0  0  0
   14.6037   -5.1339   22.2832 C   0  0  0  0  0  0  0  0  0  0  0  0
   16.0733   -5.0443   22.1350 C   0  0  0  0  0  0  0  0  0  0  0  0
   13.8887   -6.1706   21.6568 C   0  0  0  0  0  0  0  0  0  0  0  0
   13.4894   -9.0975   21.2104 C   0  0  0  0  0  0  0  0  0  0  0  0
   11.7491   -7.2814   21.1801 O   0  0  0  0  0  0  0  0  0  0  0  0
   16.7627   -5.9934   21.3842 O   0  0  0  0  0  0  0  0  0  0  0  0
   16.7152   -4.1098   22.6869 O   0  0  0  0  0  0  0  0  0  0  0  0
   13.9940   -8.6507   22.2750 O   0  0  0  0  0  0  0  0  0  0  0  0
   14.0632  -10.2074   20.5951 O   0  0  0  0  0  0  0  0  0  0  0  0
   11.9911   -9.9466   19.1641 H   0  0  0  0  0  0  0  0  0  0  0  0
   10.7512   -8.5637   19.2082 H   0  0  0  0  0  0  0  0  0  0  0  0
   10.7349   -5.3555   22.6521 H   0  0  0  0  0  0  0  0  0  0  0  0
   11.9786   -3.5280   23.7562 H   0  0  0  0  0  0  0  0  0  0  0  0
   14.4231   -3.3738   23.5399 H   0  0  0  0  0  0  0  0  0  0  0  0
   14.4120   -6.8932   21.0444 H   0  0  0  0  0  0  0  0  0  0  0  0
   17.7412   -5.8654   21.1555 H   0  0  0  0  0  0  0  0  0  0  0  0
   13.5159  -10.8074   19.9896 H   0  0  0  0  0  0  0  0  0  0  0  0
  1  2  2  0
  3  4  2  0
  4  5  1  0
  5  6  2  0
  6  7  1  0
  7  8  1  0
  3  9  1  0
  7  9  2  0
  2 10  1  0
  2 11  1  0
  3 11  1  0
  8 12  1  0
  8 13  2  0
 10 14  2  0
 10 15  1  0
  1 16  1  0
  1 17  1  0
  4 18  1  0
  5 19  1  0
  6 20  1  0
  9 21  1  0
 12 22  1  0
 15 23  1  0
M  END
