6Y7L_QMG_A_301
     RDKit          3D

 25 28  0  0  0  0  0  0  0  0999 V2000
  123.2749   -3.9766   39.0167 C   0  0  0  0  0  0  0  0  0  0  0  0
  126.7536   -3.3777   34.5565 C   0  0  0  0  0  0  0  0  0  0  0  0
  127.1729   -1.2857   33.4686 C   0  0  0  0  0  0  0  0  0  0  0  0
  123.5407    2.2449   35.8391 C   0  0  0  0  0  0  0  0  0  0  0  0
  123.8487    3.6495   35.8042 C   0  0  0  0  0  0  0  0  0  0  0  0
  128.0759    4.1174   34.3888 C   0  0  0  0  0  0  0  0  0  0  0  0
  127.3348    2.9375   34.5717 C   0  0  0  0  0  0  0  0  0  0  0  0
  127.7256    1.6456   34.3955 C   0  0  0  0  0  0  0  0  0  0  0  0
  126.6778    0.8149   34.6858 C   0  0  0  0  0  0  0  0  0  0  0  0
  126.6837   -0.5931   34.5897 C   0  0  0  0  0  0  0  0  0  0  0  0
  126.2059   -1.3200   35.6836 C   0  0  0  0  0  0  0  0  0  0  0  0
  126.2176   -2.7336   35.6954 C   0  0  0  0  0  0  0  0  0  0  0  0
  125.7256   -3.5326   36.7661 C   0  0  0  0  0  0  0  0  0  0  0  0
  123.8764   -4.7220   37.9066 C   0  0  1  0  0  0  0  0  0  0  0  0
  122.4636   -4.6277   38.0376 C   0  0  0  0  0  0  0  0  0  0  0  0
  127.2388   -2.6661   33.4432 C   0  0  0  0  0  0  0  0  0  0  0  0
  127.6117   -0.5923   32.3198 C   0  0  0  0  0  0  0  0  0  0  0  0
  125.6728    1.5725   35.0935 C   0  0  0  0  0  0  0  0  0  0  0  0
  125.1409    3.8997   35.3960 C   0  0  0  0  0  0  0  0  0  0  0  0
  129.5536    3.9557   34.0257 C   0  0  0  0  0  0  0  0  0  0  0  0
  124.4693   -4.0172   36.7422 N   0  0  0  0  0  0  0  0  0  0  0  0
  124.4068    1.2911   35.4896 N   0  0  0  0  0  0  0  0  0  0  0  0
  126.0252    2.8737   35.0008 N   0  0  0  0  0  0  0  0  0  0  0  0
  127.5670    5.2828   34.4189 O   0  0  0  0  0  0  0  0  0  0  0  0
  126.4098   -3.6073   37.7887 O   0  0  0  0  0  0  0  0  0  0  0  0
  4  5  1  0
  6  7  1  0
  7  8  2  0
  8  9  1  0
  9 10  1  0
  3 10  1  0
 10 11  2  0
 11 12  1  0
  2 12  2  0
 12 13  1  0
  1 14  1  0
 14 15  1  0
  1 15  1  0
  3 16  2  0
  2 16  1  0
  3 17  1  0
  9 18  2  0
  5 19  2  0
  6 20  1  0
 14 21  1  6
 13 21  1  0
  4 22  2  0
 18 22  1  0
 19 23  1  0
 18 23  1  0
  7 23  1  0
  6 24  2  0
 13 25  2  0
M  END
