7ZCC_OGA_D_402
     RDKit          3D

 15 14  0  0  0  0  0  0  0  0999 V2000
   35.9155   15.4910   58.6761 C   0  0  0  0  0  0  0  0  0  0  0  0
   37.3301   15.2279   59.0931 C   0  0  0  0  0  0  0  0  0  0  0  0
   39.2573   16.6986   59.5886 C   0  0  0  0  0  0  0  0  0  0  0  0
   40.3923   15.6934   59.8369 C   0  0  0  0  0  0  0  0  0  0  0  0
   34.9973   15.0071   59.4147 O   0  0  0  0  0  0  0  0  0  0  0  0
   35.8063   16.1917   57.5680 O   0  0  0  0  0  0  0  0  0  0  0  0
   37.8288   14.2223   58.6401 O   0  0  0  0  0  0  0  0  0  0  0  0
   40.1837   14.4195   59.9581 O   0  0  0  0  0  0  0  0  0  0  0  0
   38.0090   16.1359   59.9920 N   0  0  0  0  0  0  0  0  0  0  0  0
   41.5267   16.1822   59.9240 O   0  0  0  0  0  0  0  0  0  0  0  0
   39.4430   17.5891   60.1521 H   0  0  0  0  0  0  0  0  0  0  0  0
   39.2165   16.9311   58.5450 H   0  0  0  0  0  0  0  0  0  0  0  0
   36.5760   16.4871   57.1228 H   0  0  0  0  0  0  0  0  0  0  0  0
   39.3139   14.0784   59.8873 H   0  0  0  0  0  0  0  0  0  0  0  0
   37.6170   16.3616   60.8664 H   0  0  0  0  0  0  0  0  0  0  0  0
  1  2  1  0
  3  4  1  0
  1  5  2  0
  1  6  1  0
  2  7  2  0
  4  8  1  0
  2  9  1  0
  3  9  1  0
  4 10  2  0
  3 11  1  0
  3 12  1  0
  6 13  1  0
  8 14  1  0
  9 15  1  0
M  END
