8BTI_RFO_A_510
     RDKit          3D

 25 26  0  0  0  0  0  0  0  0999 V2000
   28.5303   68.4814   73.1890 C   0  0  0  0  0  0  0  0  0  0  0  0
   26.4494   69.5037   73.6789 C   0  0  0  0  0  0  0  0  0  0  0  0
   26.0386   68.7024   72.5080 C   0  0  0  0  0  0  0  0  0  0  0  0
   26.5313   66.6108   71.1650 C   0  0  0  0  0  0  0  0  0  0  0  0
   27.6251   65.5917   71.1575 C   0  0  0  0  0  0  0  0  0  0  0  0
   28.6817   66.1849   72.0971 C   0  0  0  0  0  0  0  0  0  0  0  0
   30.0057   65.8224   72.3447 C   0  0  0  0  0  0  0  0  0  0  0  0
   30.8305   66.5529   73.2330 C   0  0  0  0  0  0  0  0  0  0  0  0
   30.2833   67.6835   73.8532 C   0  0  0  0  0  0  0  0  0  0  0  0
   28.9763   68.0688   73.6482 C   0  0  0  0  0  0  0  0  0  0  0  0
   28.1634   67.3168   72.7358 C   0  0  0  0  0  0  0  0  0  0  0  0
   26.8289   67.5679   72.2282 N   0  0  0  0  0  4  0  0  0  0  0  0
   27.8528   69.6595   73.5898 O   0  0  0  0  0  0  0  0  0  0  0  0
   25.1397   68.9994   71.7617 O   0  0  0  0  0  0  0  0  0  0  0  0
   30.5595   64.4139   71.5112 Cl  0  0  0  0  0  0  0  0  0  0  0  0
   29.5820   68.6729   73.1435 H   0  0  0  0  0  0  0  0  0  0  0  0
   28.3400   67.7021   73.8970 H   0  0  0  0  0  0  0  0  0  0  0  0
   28.1806   68.1797   72.2238 H   0  0  0  0  0  0  0  0  0  0  0  0
   25.9698   70.4599   73.6586 H   0  0  0  0  0  0  0  0  0  0  0  0
   26.1721   69.0216   74.5930 H   0  0  0  0  0  0  0  0  0  0  0  0
   25.7149   66.6340   70.5342 H   0  0  0  0  0  0  0  0  0  0  0  0
   27.6606   64.6988   70.6414 H   0  0  0  0  0  0  0  0  0  0  0  0
   31.8033   66.2622   73.4177 H   0  0  0  0  0  0  0  0  0  0  0  0
   30.8774   68.2451   74.4830 H   0  0  0  0  0  0  0  0  0  0  0  0
   28.5877   68.8864   74.1438 H   0  0  0  0  0  0  0  0  0  0  0  0
  2  3  1  0
  4  5  4  0
  5  6  4  0
  6  7  4  0
  7  8  4  0
  8  9  4  0
  9 10  4  0
  6 11  4  0
 10 11  4  0
  4 12  4  0
  3 12  1  0
 11 12  4  0
  2 13  1  0
  1 13  1  0
  3 14  2  0
  7 15  1  0
  1 16  1  0
  1 17  1  0
  1 18  1  0
  2 19  1  0
  2 20  1  0
  4 21  1  0
  5 22  1  0
  8 23  1  0
  9 24  1  0
 10 25  1  0
M  CHG  1  12   1
M  END
