7Z1Q_NIO_A_301
     RDKit          3D

  9  9  0  0  0  0  0  0  0  0999 V2000
   -4.5057   24.6737   -0.0464 N   0  0  0  0  0  0  0  0  0  0  0  0
   -4.1860   25.8851   -0.5366 C   0  0  0  0  0  0  0  0  0  0  0  0
   -3.2564   26.7318    0.0500 C   0  0  0  0  0  0  0  0  0  0  0  0
   -2.6269   26.2834    1.2043 C   0  0  0  0  0  0  0  0  0  0  0  0
   -2.9543   25.0483    1.7309 C   0  0  0  0  0  0  0  0  0  0  0  0
   -3.8943   24.2825    1.0753 C   0  0  0  0  0  0  0  0  0  0  0  0
   -2.9391   28.0604   -0.5434 C   0  0  0  0  0  0  0  0  0  0  0  0
   -3.3906   28.3976   -1.6325 O   0  0  0  0  0  0  0  0  0  0  0  0
   -2.1728   28.8351    0.1854 O   0  0  0  0  0  0  0  0  0  0  0  0
  1  2  2  0
  2  3  1  0
  3  4  2  0
  4  5  1  0
  1  6  1  0
  5  6  2  0
  3  7  1  0
  7  8  2  0
  7  9  1  0
M  END
