7ZDY_6MJ_Y_903
     RDKit          3D

 11 11  0  0  0  0  0  0  0  0999 V2000
   28.7331    3.0058   64.9208 C   0  0  0  0  0  0  0  0  0  0  0  0
   27.9129    3.8880   65.6473 O   0  0  0  0  0  0  0  0  0  0  0  0
   26.9329    3.1513   66.3177 C   0  0  1  0  0  0  0  0  0  0  0  0
   26.3217    3.8680   67.4804 C   0  0  1  0  0  0  0  0  0  0  0  0
   25.2971    4.8923   67.0917 C   0  0  2  0  0  0  0  0  0  0  0  0
   24.4652    4.4530   65.9218 C   0  0  1  0  0  0  0  0  0  0  0  0
   24.7001    2.9768   65.6816 C   0  0  0  0  0  0  0  0  0  0  0  0
   26.0098    2.6574   65.4206 O   0  0  0  0  0  0  0  0  0  0  0  0
   23.0810    4.5767   66.1809 O   0  0  0  0  0  0  0  0  0  0  0  0
   25.8442    6.1468   66.8977 O   0  0  0  0  0  0  0  0  0  0  0  0
   25.7210    2.9093   68.3130 O   0  0  0  0  0  0  0  0  0  0  0  0
  1  2  1  6
  3  2  1  6
  3  4  1  0
  4  5  1  0
  5  6  1  0
  6  7  1  0
  3  8  1  0
  7  8  1  1
  6  9  1  1
  5 10  1  6
  4 11  1  1
M  END
$$$$
