1GM8_SOX_B_1559
     RDKit          3D

 44 46  0  0  0  0  0  0  0  0999 V2000
   18.9751   -1.8625    5.9477 O   0  0  0  0  0  0  0  0  0  0  0  0
   18.0206   -2.2688    5.2352 C   0  0  0  0  0  0  0  0  0  0  0  0
   17.6819   -2.1938    3.7959 N   0  0  0  0  0  0  0  0  0  0  0  0
   17.7737   -1.1271    2.8145 C   0  0  1  0  0  0  0  0  0  0  0  0
   18.2966   -1.6943    1.5214 C   0  0  0  0  0  0  0  0  0  0  0  0
   18.2874   -2.9387    1.3172 O   0  0  0  0  0  0  0  0  0  0  0  0
   18.7545   -0.8341    0.5287 O   0  0  0  0  0  0  0  0  0  0  0  0
   16.3218   -0.5378    2.7190 C   0  0  1  0  0  0  0  0  0  0  0  0
   16.1943    0.6672    3.6707 C   0  0  2  0  0  0  0  0  0  0  0  0
   15.9091   -0.0980    1.3011 C   0  0  1  0  0  0  0  0  0  0  0  0
   15.2167   -1.8808    3.2917 S   0  0  1  0  0  4  0  0  0  0  0  0
   16.4737   -2.9246    4.0690 C   0  0  2  0  0  0  0  0  0  0  0  0
   16.7169   -2.9541    5.4992 C   0  0  2  0  0  0  0  0  0  0  0  0
   15.8317   -2.1284    6.3212 N   0  0  0  0  0  0  0  0  0  0  0  0
   16.1838   -1.7512    7.6594 C   0  0  0  0  0  0  0  0  0  0  0  0
   16.0674   -2.5780    8.6043 O   0  0  0  0  0  0  0  0  0  0  0  0
   16.6588   -0.3584    7.9477 C   0  0  1  0  0  0  0  0  0  0  0  0
   16.5327    0.5006    6.7200 C   0  0  0  0  0  0  0  0  0  0  0  0
   16.6125    1.9007    6.8201 C   0  0  0  0  0  0  0  0  0  0  0  0
   16.5582    2.6931    5.6694 C   0  0  0  0  0  0  0  0  0  0  0  0
   16.4267    2.0955    4.4129 C   0  0  0  0  0  0  0  0  0  0  0  0
   16.3517    0.7041    4.3045 C   0  0  0  0  0  0  0  0  0  0  0  0
   16.4087   -0.0926    5.4524 C   0  0  0  0  0  0  0  0  0  0  0  0
   14.0892   -1.2749    4.4110 O   0  0  0  0  0  0  0  0  0  0  0  0
   18.4977   -0.3623    3.1729 H   0  0  0  0  0  0  0  0  0  0  0  0
   18.1043   -0.3197   -0.0530 H   0  0  0  0  0  0  0  0  0  0  0  0
   17.1726    0.8855    4.1510 H   0  0  0  0  0  0  0  0  0  0  0  0
   15.4536    0.4599    4.4708 H   0  0  0  0  0  0  0  0  0  0  0  0
   15.8703    1.5761    3.1202 H   0  0  0  0  0  0  0  0  0  0  0  0
   15.4383   -0.9354    0.7444 H   0  0  0  0  0  0  0  0  0  0  0  0
   15.1659    0.7266    1.3531 H   0  0  0  0  0  0  0  0  0  0  0  0
   16.7951    0.2586    0.7333 H   0  0  0  0  0  0  0  0  0  0  0  0
   14.5798   -2.5552    2.2531 H   0  0  0  0  0  0  0  0  0  0  0  0
   16.5158   -3.9351    3.6057 H   0  0  0  0  0  0  0  0  0  0  0  0
   16.8741   -3.9725    5.9179 H   0  0  0  0  0  0  0  0  0  0  0  0
   14.9911   -1.6845    5.8863 H   0  0  0  0  0  0  0  0  0  0  0  0
   16.0660    0.0802    8.7801 H   0  0  0  0  0  0  0  0  0  0  0  0
   17.7164   -0.3946    8.2882 H   0  0  0  0  0  0  0  0  0  0  0  0
   16.7269    2.3769    7.7858 H   0  0  0  0  0  0  0  0  0  0  0  0
   16.6238    3.7703    5.7516 H   0  0  0  0  0  0  0  0  0  0  0  0
   16.3871    2.7102    3.5229 H   0  0  0  0  0  0  0  0  0  0  0  0
   16.2562    0.2424    3.3303 H   0  0  0  0  0  0  0  0  0  0  0  0
   16.3659   -1.1703    5.3537 H   0  0  0  0  0  0  0  0  0  0  0  0
   14.1767   -0.2906    4.3481 H   0  0  0  0  0  0  0  0  0  0  0  0
  1  2  2  0
  2  3  1  0
  3  4  1  0
  4  5  1  0
  5  6  2  0
  5  7  1  0
  8  4  1  6
  8  9  1  0
  8 10  1  0
  8 11  1  0
 12  3  1  0
 11 12  1  0
  2 13  1  0
 12 13  1  0
 13 14  1  0
 14 15  1  0
 15 16  2  0
 15 17  1  0
 17 18  1  0
 18 19  2  0
 19 20  1  0
 20 21  2  0
 21 22  1  0
 18 23  1  0
 22 23  2  0
 11 24  1  0
  4 25  1  1
  7 26  1  0
  9 27  1  1
  9 28  1  0
  9 29  1  0
 10 30  1  6
 10 31  1  0
 10 32  1  0
 11 33  1  6
 12 34  1  6
 13 35  1  1
 14 36  1  0
 17 37  1  1
 17 38  1  0
 19 39  1  0
 20 40  1  0
 21 41  1  0
 22 42  1  0
 23 43  1  0
 24 44  1  0
M  END
