1VCJ_IBA_A_1
     RDKit          3D

 52 53  0  0  0  0  0  0  0  0999 V2000
   33.3234   -9.6616   64.6255 C   0  0  0  0  0  0  0  0  0  0  0  0
   32.1461   -9.3031   63.9200 C   0  0  0  0  0  0  0  0  0  0  0  0
   31.0446  -10.2058   63.8781 C   0  0  0  0  0  0  0  0  0  0  0  0
   31.1523  -11.4475   64.5650 C   0  0  0  0  0  0  0  0  0  0  0  0
   32.3230  -11.7841   65.2706 C   0  0  0  0  0  0  0  0  0  0  0  0
   33.4076  -10.8878   65.2910 C   0  0  0  0  0  0  0  0  0  0  0  0
   32.3859  -13.0570   65.9922 C   0  0  0  0  0  0  0  0  0  0  0  0
   31.1981  -13.6230   66.2901 O   0  0  0  0  0  0  0  0  0  0  0  0
   33.4141  -13.5272   66.3231 O   0  0  0  0  0  0  0  0  0  0  0  0
   29.9288   -9.8316   63.1901 N   0  0  0  0  0  0  0  0  0  0  0  0
   29.1881  -10.6611   62.2300 C   0  0  1  0  0  0  0  0  0  0  0  0
   29.8173  -12.0754   62.1998 C   0  0  0  0  0  0  0  0  0  0  0  0
   27.6915  -10.6584   62.6435 C   0  0  0  0  0  0  0  0  0  0  0  0
   28.9571  -13.1295   61.4775 C   0  0  0  0  0  0  0  0  0  0  0  0
   26.9697  -12.0145   62.5447 C   0  0  0  0  0  0  0  0  0  0  0  0
   32.0906   -8.0615   63.2973 N   0  0  0  0  0  0  0  0  0  0  0  0
   32.7461   -7.7234   61.9911 C   0  0  2  0  0  0  0  0  0  0  0  0
   32.8818   -6.1807   62.1292 C   0  0  0  0  0  0  0  0  0  0  0  0
   31.7665   -5.7082   63.0685 C   0  0  0  0  0  0  0  0  0  0  0  0
   31.4996   -6.9772   63.8304 C   0  0  0  0  0  0  0  0  0  0  0  0
   30.8203   -6.9756   64.8639 O   0  0  0  0  0  0  0  0  0  0  0  0
   31.8802   -8.1373   60.7287 C   0  0  0  0  0  0  0  0  0  0  0  0
   32.6027   -9.0414   59.8880 O   0  0  0  0  0  0  0  0  0  0  0  0
   34.1728   -8.3397   61.8422 C   0  0  0  0  0  0  0  0  0  0  0  0
   34.9992   -7.9206   60.7131 N   0  0  0  0  0  0  0  0  0  0  0  0
   34.1246   -9.0114   64.6475 H   0  0  0  0  0  0  0  0  0  0  0  0
   30.3615  -12.1102   64.5457 H   0  0  0  0  0  0  0  0  0  0  0  0
   34.2700  -11.1372   65.8002 H   0  0  0  0  0  0  0  0  0  0  0  0
   30.4019  -13.2172   66.0084 H   0  0  0  0  0  0  0  0  0  0  0  0
   29.5882   -8.9222   63.3514 H   0  0  0  0  0  0  0  0  0  0  0  0
   29.2470  -10.2766   61.2331 H   0  0  0  0  0  0  0  0  0  0  0  0
   30.7617  -12.0127   61.7008 H   0  0  0  0  0  0  0  0  0  0  0  0
   29.9086  -12.3950   63.2169 H   0  0  0  0  0  0  0  0  0  0  0  0
   27.6315  -10.3273   63.6592 H   0  0  0  0  0  0  0  0  0  0  0  0
   27.1974  -10.0134   61.9472 H   0  0  0  0  0  0  0  0  0  0  0  0
   28.8381  -12.8504   60.4514 H   0  0  0  0  0  0  0  0  0  0  0  0
   29.4393  -14.0830   61.5341 H   0  0  0  0  0  0  0  0  0  0  0  0
   27.9965  -13.1873   61.9451 H   0  0  0  0  0  0  0  0  0  0  0  0
   27.4207  -12.7089   63.2225 H   0  0  0  0  0  0  0  0  0  0  0  0
   25.9376  -11.8885   62.7975 H   0  0  0  0  0  0  0  0  0  0  0  0
   27.0490  -12.3888   61.5454 H   0  0  0  0  0  0  0  0  0  0  0  0
   33.8375   -5.9324   62.5413 H   0  0  0  0  0  0  0  0  0  0  0  0
   32.7996   -5.7057   61.1739 H   0  0  0  0  0  0  0  0  0  0  0  0
   32.0990   -4.9219   63.7135 H   0  0  0  0  0  0  0  0  0  0  0  0
   30.9118   -5.2942   62.5756 H   0  0  0  0  0  0  0  0  0  0  0  0
   30.9804   -8.6114   61.0613 H   0  0  0  0  0  0  0  0  0  0  0  0
   31.6525   -7.2558   60.1665 H   0  0  0  0  0  0  0  0  0  0  0  0
   32.8157   -9.8460   60.3862 H   0  0  0  0  0  0  0  0  0  0  0  0
   34.7137   -8.1029   62.7345 H   0  0  0  0  0  0  0  0  0  0  0  0
   33.9915   -9.3787   61.6622 H   0  0  0  0  0  0  0  0  0  0  0  0
   35.2225   -6.9296   60.8045 H   0  0  0  0  0  0  0  0  0  0  0  0
   35.8623   -8.4641   60.7034 H   0  0  0  0  0  0  0  0  0  0  0  0
  1  2  2  0
  2  3  1  0
  3  4  2  0
  4  5  1  0
  1  6  1  0
  5  6  2  0
  5  7  1  0
  7  8  1  0
  7  9  2  0
  3 10  1  0
 10 11  1  0
 11 12  1  0
 11 13  1  0
 12 14  1  0
 13 15  1  0
  2 16  1  0
 16 17  1  0
 17 18  1  0
 18 19  1  0
 16 20  1  0
 19 20  1  0
 20 21  2  0
 17 22  1  1
 22 23  1  0
 17 24  1  0
 24 25  1  0
  1 26  1  0
  4 27  1  0
  6 28  1  0
  8 29  1  0
 10 30  1  0
 11 31  1  1
 12 32  1  0
 12 33  1  0
 13 34  1  0
 13 35  1  0
 14 36  1  0
 14 37  1  0
 14 38  1  0
 15 39  1  0
 15 40  1  0
 15 41  1  0
 18 42  1  0
 18 43  1  0
 19 44  1  0
 19 45  1  0
 22 46  1  0
 22 47  1  0
 23 48  1  0
 24 49  1  0
 24 50  1  0
 25 51  1  0
 25 52  1  0
M  END
