@<TRIPOS>MOLECULE
1VCJ_IBA_A_1
 52 53 0 0 0
SMALL
GASTEIGER

@<TRIPOS>ATOM
      1 C          -1.7773    1.2502   -0.4831 C.ar    1  UNL1       -0.0377
      2 C          -1.0827    0.0341   -0.4997 C.ar    1  UNL1        0.0578
      3 C          -0.4868   -0.4589    0.6880 C.ar    1  UNL1        0.0499
      4 C          -0.5656    0.3301    1.8545 C.ar    1  UNL1       -0.0251
      5 C          -1.2307    1.5679    1.8561 C.ar    1  UNL1        0.0607
      6 C          -1.8420    2.0156    0.6777 C.ar    1  UNL1       -0.0459
      7 C          -1.2977    2.3809    3.0922 C.2     1  UNL1        0.3369
      8 O          -0.6939    1.9307    4.2637 O.3     1  UNL1       -0.4771
      9 O          -1.9007    3.4883    3.0964 O.2     1  UNL1       -0.2451
     10 N           0.1632   -1.7558    0.6759 N.pl3   1  UNL1       -0.3395
     11 C           0.8736   -2.4405    1.7720 C.3     1  UNL1        0.0202
     12 C           2.1551   -1.6919    2.2039 C.3     1  UNL1       -0.0374
     13 C          -0.0725   -2.7605    2.9551 C.3     1  UNL1       -0.0374
     14 C           3.1081   -1.4604    1.0328 C.3     1  UNL1       -0.0636
     15 C           0.3119   -4.0568    3.6697 C.3     1  UNL1       -0.0636
     16 N          -1.0486   -0.7340   -1.7146 N.am    1  UNL1       -0.2601
     17 C          -0.2136   -0.4906   -2.9015 C.3     1  UNL1        0.0778
     18 C          -0.5412   -1.7002   -3.8392 C.3     1  UNL1       -0.0195
     19 C          -1.8573   -2.3139   -3.3481 C.3     1  UNL1        0.0266
     20 C          -1.9976   -1.7465   -1.9970 C.2     1  UNL1        0.2205
     21 O          -2.8874   -2.1034   -1.1792 O.2     1  UNL1       -0.2752
     22 C          -0.6417    0.8262   -3.5970 C.3     1  UNL1        0.0672
     23 O           0.1083    1.0340   -4.7636 O.3     1  UNL1       -0.3928
     24 C           1.3097   -0.5095   -2.5533 C.3     1  UNL1        0.0172
     25 N           1.8119    0.7237   -1.9419 N.3     1  UNL1       -0.3279
     26 H          -2.2851    1.6011   -1.3716 H       1  UNL1        0.0637
     27 H          -0.1261   -0.0031    2.7730 H       1  UNL1        0.0645
     28 H          -2.3792    2.9556    0.6534 H       1  UNL1        0.0626
     29 H          -0.7340    2.4798    5.1141 H       1  UNL1        0.2954
     30 H           0.1161   -2.3096   -0.2079 H       1  UNL1        0.1464
     31 H           1.2173   -3.4185    1.3613 H       1  UNL1        0.0497
     32 H           2.6892   -2.3001    2.9650 H       1  UNL1        0.0280
     33 H           1.9278   -0.7158    2.6725 H       1  UNL1        0.0280
     34 H          -0.0654   -1.9498    3.7106 H       1  UNL1        0.0280
     35 H          -1.1138   -2.8710    2.5810 H       1  UNL1        0.0280
     36 H           2.6579   -0.7560    0.3043 H       1  UNL1        0.0230
     37 H           4.0548   -1.0166    1.4066 H       1  UNL1        0.0230
     38 H           3.3421   -2.4197    0.5242 H       1  UNL1        0.0230
     39 H           0.2486   -4.9181    2.9711 H       1  UNL1        0.0230
     40 H          -0.3879   -4.2373    4.5129 H       1  UNL1        0.0230
     41 H           1.3426   -3.9879    4.0761 H       1  UNL1        0.0230
     42 H           0.2472   -2.4829   -3.7655 H       1  UNL1        0.0292
     43 H          -0.6214   -1.4144   -4.9107 H       1  UNL1        0.0292
     44 H          -2.7070   -1.9826   -3.9826 H       1  UNL1        0.0359
     45 H          -1.8033   -3.4233   -3.3117 H       1  UNL1        0.0359
     46 H          -0.4988    1.6908   -2.9145 H       1  UNL1        0.0579
     47 H          -1.7239    0.7745   -3.8553 H       1  UNL1        0.0579
     48 H          -0.2254    1.8806   -5.1595 H       1  UNL1        0.2095
     49 H           1.8964   -0.6939   -3.4806 H       1  UNL1        0.0444
     50 H           1.5263   -1.3596   -1.8737 H       1  UNL1        0.0444
     51 H           1.1937    1.0300   -1.1612 H       1  UNL1        0.1183
     52 H           1.8423    1.4831   -2.6592 H       1  UNL1        0.1183
@<TRIPOS>BOND
     1     1     2   ar
     2     2     3   ar
     3     3     4   ar
     4     4     5   ar
     5     1     6   ar
     6     5     6   ar
     7     5     7    1
     8     7     8    1
     9     7     9    2
    10     3    10    1
    11    10    11    1
    12    11    12    1
    13    11    13    1
    14    12    14    1
    15    13    15    1
    16     2    16    1
    17    16    17    1
    18    17    18    1
    19    18    19    1
    20    16    20   am
    21    19    20    1
    22    20    21    2
    23    17    22    1
    24    22    23    1
    25    17    24    1
    26    24    25    1
    27     1    26    1
    28     4    27    1
    29     6    28    1
    30     8    29    1
    31    10    30    1
    32    11    31    1
    33    12    32    1
    34    12    33    1
    35    13    34    1
    36    13    35    1
    37    14    36    1
    38    14    37    1
    39    14    38    1
    40    15    39    1
    41    15    40    1
    42    15    41    1
    43    18    42    1
    44    18    43    1
    45    19    44    1
    46    19    45    1
    47    22    46    1
    48    22    47    1
    49    23    48    1
    50    24    49    1
    51    24    50    1
    52    25    51    1
    53    25    52    1
