7K0V_VQP_A_801
     RDKit          3D

 32 34  0  0  0  0  0  0  0  0999 V2000
    6.8256    3.3803  -22.5445 C   0  0  0  0  0  0  0  0  0  0  0  0
    6.5968    2.7877  -23.7553 C   0  0  0  0  0  0  0  0  0  0  0  0
    5.7684    1.6584  -23.7263 C   0  0  0  0  0  0  0  0  0  0  0  0
    5.2268    1.1845  -22.5530 C   0  0  0  0  0  0  0  0  0  0  0  0
    2.2077    1.1787  -22.4209 C   0  0  0  0  0  0  0  0  0  0  0  0
    0.9970   -1.1825  -21.7718 C   0  0  0  0  0  0  0  0  0  0  0  0
   -1.6650   -3.6103  -20.8541 C   0  0  0  0  0  0  0  0  0  0  0  0
    6.6860    3.4186  -28.6338 C   0  0  0  0  0  0  0  0  0  0  0  0
    6.0141    4.9632  -30.4956 C   0  0  1  0  0  0  0  0  0  0  0  0
    4.8962    1.3302  -20.0547 C   0  0  0  0  0  0  0  0  0  0  0  0
    0.8460    1.1308  -22.1718 C   0  0  0  0  0  0  0  0  0  0  0  0
    0.2245   -0.0492  -21.8445 C   0  0  0  0  0  0  0  0  0  0  0  0
    2.3519   -1.1295  -22.0208 C   0  0  0  0  0  0  0  0  0  0  0  0
    0.3718   -2.3631  -21.4437 C   0  0  0  0  0  0  0  0  0  0  0  0
   -1.7145   -1.2552  -21.2798 C   0  0  0  0  0  0  0  0  0  0  0  0
    5.4628    1.7875  -21.3384 C   0  0  0  0  0  0  0  0  0  0  0  0
    6.7026    2.7838  -26.2783 C   0  0  0  0  0  0  0  0  0  0  0  0
    6.8385    4.7259  -29.2948 C   0  0  0  0  0  0  0  0  0  0  0  0
    6.3321    4.0144  -31.6082 C   0  0  0  0  0  0  0  0  0  0  0  0
    6.2743    2.8989  -21.3463 C   0  0  0  0  0  0  0  0  0  0  0  0
    4.5197    4.9475  -30.1948 C   0  0  0  0  0  0  0  0  0  0  0  0
    6.2762    6.3993  -30.9988 C   0  0  0  0  0  0  0  0  0  0  0  0
    2.9989    0.0526  -22.3532 C   0  0  0  0  0  0  0  0  0  0  0  0
    3.0781   -2.2534  -21.9417 F   0  0  0  0  0  0  0  0  0  0  0  0
    7.5856    4.4818  -22.4128 F   0  0  0  0  0  0  0  0  0  0  0  0
   -0.9517   -2.3835  -21.2063 N   0  0  0  0  0  0  0  0  0  0  0  0
   -1.1041   -0.0913  -21.6023 N   0  0  0  0  0  0  0  0  0  0  0  0
    7.1155    3.1605  -25.0002 N   0  0  0  0  0  0  0  0  0  0  0  0
    7.4624    3.1436  -27.4625 N   0  0  0  0  0  0  0  0  0  0  0  0
    4.3913    0.0473  -22.6091 N   0  0  0  0  0  0  0  0  0  0  0  0
    1.0166   -3.4471  -21.3575 O   0  0  0  0  0  0  0  0  0  0  0  0
    5.6721    2.1243  -26.4927 O   0  0  0  0  0  0  0  0  0  0  0  0
  1  2  2  0
  2  3  1  0
  3  4  2  0
  5 11  2  0
 11 12  1  0
  6 12  2  0
  6 13  1  0
  6 14  1  0
  4 16  1  0
 10 16  1  1
  9 18  1  0
 18  8  1  6
  9 19  1  6
  1 20  1  0
 16 20  2  0
 21  9  1  6
 22  9  1  6
  5 23  1  0
 13 23  2  0
 13 24  1  0
  1 25  1  0
 14 26  1  0
 15 26  1  0
  7 26  1  1
 12 27  1  0
 15 27  2  0
 17 28  1  0
  2 28  1  0
  8 29  1  1
 17 29  1  0
  4 30  1  0
 23 30  1  0
 14 31  2  0
 17 32  2  0
M  END
$$$$
