7PRI_7TI_AAA_404
     RDKit          3D

 20 20  0  0  0  0  0  0  0  0999 V2000
   39.4042  -22.1664   -6.8755 Cl  0  0  0  0  0  0  0  0  0  0  0  0
   43.3168  -23.7322   -8.1251 O   0  0  0  0  0  0  0  0  0  0  0  0
   42.6015  -22.4797   -7.9726 S   0  0  2  0  0  0  0  0  0  0  0  0
   43.3829  -21.2848   -8.0379 O   0  0  0  0  0  0  0  0  0  0  0  0
   41.8046  -22.5388   -6.6312 N   0  0  0  0  0  0  0  0  0  0  0  0
   41.3849  -22.3716   -9.3035 C   0  0  0  0  0  0  0  0  0  0  0  0
   41.5277  -23.2141  -10.3940 C   0  0  0  0  0  0  0  0  0  0  0  0
   40.7404  -23.0545  -11.5364 C   0  0  0  0  0  0  0  0  0  0  0  0
   40.8745  -24.2521  -12.8388 S   0  0  2  0  0  0  0  0  0  0  0  0
   39.7611  -25.1657  -12.7154 O   0  0  0  0  0  0  0  0  0  0  0  0
   42.1989  -25.1192  -12.6099 N   0  0  0  0  0  0  0  0  0  0  0  0
   41.0240  -23.5299  -14.0763 O   0  0  0  0  0  0  0  0  0  0  0  0
   39.8108  -21.9872  -11.6135 C   0  0  0  0  0  0  0  0  0  0  0  0
   39.0624  -21.7260  -12.7348 N   0  0  0  0  0  0  0  0  0  0  0  0
   39.6538  -21.1871  -10.4694 C   0  0  0  0  0  0  0  0  0  0  0  0
   40.3864  -21.3947   -9.2977 C   0  0  0  0  0  0  0  0  0  0  0  0
   39.9734  -20.8752   -7.9770 C   0  0  0  0  0  0  0  0  0  0  0  0
   39.9540  -19.6045   -7.6256 C   0  0  0  0  0  0  0  0  0  0  0  0
   39.5577  -19.0021   -6.0394 Cl  0  0  0  0  0  0  0  0  0  0  0  0
   40.2370  -18.4199   -8.8325 Cl  0  0  0  0  0  0  0  0  0  0  0  0
  2  3  2  0
  3  4  2  0
  3  5  1  1
  3  6  1  0
  6  7  2  0
  7  8  1  0
  8  9  1  0
  9 10  2  0
  9 11  1  1
  9 12  2  0
  8 13  2  0
 13 14  1  0
 13 15  1  0
 15 16  2  0
  6 16  1  0
  1 17  1  0
 16 17  1  0
 17 18  2  0
 18 19  1  0
 18 20  1  0
M  END
