
     RDKit          3D

 27 30  0  0  0  0  0  0  0  0999 V2000
   71.4721   38.3937    0.8033 N   0  0  0  0  0  0  0  0  0  0  0  0
   66.6508   34.7021    4.4375 C   0  0  2  0  0  0  0  0  0  0  0  0
   73.5102   37.8924   -0.2671 N   0  0  0  0  0  0  0  0  0  0  0  0
   67.0416   36.9057    2.9719 C   0  0  0  0  0  0  0  0  0  0  0  0
   67.2673   38.0845    2.1937 C   0  0  0  0  0  0  0  0  0  0  0  0
   66.2615   39.0402    2.0743 C   0  0  0  0  0  0  0  0  0  0  0  0
   65.2529   34.3962    4.4115 O   0  0  0  0  0  0  0  0  0  0  0  0
   67.3841   33.5012    3.7980 C   0  0  0  0  0  0  0  0  0  0  0  0
   68.2124   33.8203    2.5592 C   0  0  0  0  0  0  0  0  0  0  0  0
   67.0852   34.9311    5.9010 C   0  0  0  0  0  0  0  0  0  0  0  0
   68.2736   34.0791    6.3426 C   0  0  0  0  0  0  0  0  0  0  0  0
   66.8597   35.9162    3.6289 C   0  0  0  0  0  0  0  0  0  0  0  0
   68.5017   38.2699    1.5578 C   0  0  0  0  0  0  0  0  0  0  0  0
   68.7384   39.4355    0.7905 C   0  0  0  0  0  0  0  0  0  0  0  0
   67.7042   40.3630    0.6950 C   0  0  0  0  0  0  0  0  0  0  0  0
   66.4617   40.1998    1.3205 C   0  0  0  0  0  0  0  0  0  0  0  0
   69.8570   39.9373    0.0189 C   0  0  0  0  0  0  0  0  0  0  0  0
   71.1717   39.2991   -0.1576 C   0  0  0  0  0  0  0  0  0  0  0  0
   72.0378   39.5615   -1.2051 C   0  0  0  0  0  0  0  0  0  0  0  0
   73.1957   38.8034   -1.2029 C   0  0  0  0  0  0  0  0  0  0  0  0
   72.6313   37.7460    0.7188 C   0  0  0  0  0  0  0  0  0  0  0  0
   72.9152   36.8127    1.6938 N   0  0  0  0  0  0  0  0  0  0  0  0
   71.8135   40.5617   -2.2951 C   0  0  0  0  0  0  0  0  0  0  0  0
   71.5393   41.9525   -1.7356 C   0  0  0  0  0  0  0  0  0  0  0  0
   70.0674   42.1641   -1.4302 C   0  0  0  0  0  0  0  0  0  0  0  0
   69.4469   41.1514   -0.5259 C   0  0  0  0  0  0  0  0  0  0  0  0
   68.1604   41.3852   -0.0928 N   0  0  0  0  0  0  0  0  0  0  0  0
  4  5  1  0
  5  6  4  0
  2  7  1  1
  2  8  1  0
  8  9  1  0
  2 10  1  0
 10 11  1  0
  4 12  3  0
  2 12  1  0
  5 13  4  0
 13 14  4  0
 14 15  4  0
 15 16  4  0
  6 16  4  0
 14 17  4  0
 17 18  1  0
  1 18  4  0
 18 19  4  0
 19 20  4  0
  3 20  4  0
  3 21  4  0
  1 21  4  0
 21 22  1  0
 19 23  1  0
 23 24  1  0
 24 25  1  0
 25 26  1  0
 17 26  4  0
 26 27  4  0
 15 27  4  0
M  END
