6XM9_V55_A_501
     RDKit          3D

 11 11  0  0  0  0  0  0  0  0999 V2000
   22.5333   13.4238   35.3205 C   0  0  0  0  0  0  0  0  0  0  0  0
   21.9973   13.0891   36.4941 C   0  0  0  0  0  0  0  0  0  0  0  0
   21.1083   11.8516   36.5879 C   0  0  0  0  0  0  0  0  0  0  0  0
   20.9024   11.1426   35.5110 C   0  0  0  0  0  0  0  0  0  0  0  0
   21.5191   11.5209   34.1732 C   0  0  0  0  0  0  0  0  0  0  0  0
   23.6342   15.3208   36.0906 O   0  0  0  0  0  0  0  0  0  0  0  0
   22.2783   12.5833   34.0819 C   0  0  0  0  0  0  0  0  0  0  0  0
   23.4251   14.6503   35.1582 C   0  0  0  0  0  0  0  0  0  0  0  0
   20.7007   12.2146   38.8991 C   0  0  0  0  0  0  0  0  0  0  0  0
   20.5003   11.4039   37.7700 O   0  0  0  0  0  0  0  0  0  0  0  0
   20.1028   10.0048   35.5827 O   0  0  0  0  0  0  0  0  0  0  0  0
  1  2  2  0
  2  3  1  0
  3  4  2  0
  4  5  1  0
  1  7  1  0
  5  7  2  0
  1  8  1  0
  6  8  2  0
  3 10  1  0
  9 10  1  0
  4 11  1  0
M  END
