1M2Z_DEX_D_401
     RDKit          3D

 28 31  0  0  0  0  0  0  0  0999 V2000
   18.7310   25.6480   -9.8410 C   0  0  0  0  0  0  0  0  0  0  0  0
   19.4670   25.6080   -8.7340 C   0  0  0  0  0  0  0  0  0  0  0  0
   20.7140   26.4380   -8.6870 C   0  0  0  0  0  0  0  0  0  0  0  0
   21.1290   27.1700   -9.9270 C   0  0  0  0  0  0  0  0  0  0  0  0
   20.3450   27.1590  -11.0030 C   0  0  0  0  0  0  0  0  0  0  0  0
   20.8350   27.9050  -12.2090 C   0  0  0  0  0  0  0  0  0  0  0  0
   20.8250   26.9780  -13.4200 C   0  0  0  0  0  0  0  0  0  0  0  0
   19.5200   26.2020  -13.5720 C   0  0  2  0  0  0  0  0  0  0  0  0
   19.0440   25.5130  -12.2920 C   0  0  1  0  0  0  0  0  0  0  0  0
   19.0230   26.4460  -11.0790 C   0  0  1  0  0  0  0  0  0  0  0  0
   17.8280   24.6040  -12.4540 C   0  0  2  0  0  0  0  0  0  0  0  0
   17.7900   23.7820  -13.7390 C   0  0  0  0  0  0  0  0  0  0  0  0
   18.1270   24.6050  -14.9810 C   0  0  1  0  0  0  0  0  0  0  0  0
   19.4940   25.2520  -14.7660 C   0  0  1  0  0  0  0  0  0  0  0  0
   19.9620   25.7070  -16.1440 C   0  0  0  0  0  0  0  0  0  0  0  0
   19.3570   24.6710  -17.0860 C   0  0  2  0  0  0  0  0  0  0  0  0
   18.4510   23.7880  -16.2310 C   0  0  2  0  0  0  0  0  0  0  0  0
   17.0020   25.5970  -15.2760 C   0  0  0  0  0  0  0  0  0  0  0  0
   17.9310   27.5120  -11.1400 C   0  0  0  0  0  0  0  0  0  0  0  0
   17.2250   23.2900  -16.9800 C   0  0  0  0  0  0  0  0  0  0  0  0
   16.5010   22.0100  -16.5930 C   0  0  0  0  0  0  0  0  0  0  0  0
   20.4420   23.9540  -17.8820 C   0  0  0  0  0  0  0  0  0  0  0  0
   20.0240   24.6050  -12.0180 F   0  0  0  0  0  0  0  0  0  0  0  0
   21.3750   26.5150   -7.6540 O   0  0  0  0  0  0  0  0  0  0  0  0
   16.6370   25.3770  -12.4440 O   0  0  0  0  0  0  0  0  0  0  0  0
   19.1990   22.6320  -15.8800 O   0  0  0  0  0  0  0  0  0  0  0  0
   16.7660   23.9310  -17.9240 O   0  0  0  0  0  0  0  0  0  0  0  0
   15.1480   22.0630  -17.0180 O   0  0  0  0  0  0  0  0  0  0  0  0
  1  2  2  0
  2  3  1  0
  3  4  1  0
  4  5  2  0
  5  6  1  0
  6  7  1  0
  8  7  1  1
  8  9  1  0
  1 10  1  0
  5 10  1  0
  9 10  1  0
  9 11  1  0
 11 12  1  0
 12 13  1  0
  8 14  1  0
 13 14  1  0
 14 15  1  6
 15 16  1  0
 13 17  1  0
 16 17  1  0
 13 18  1  6
 10 19  1  6
 17 20  1  0
 20 21  1  0
 16 22  1  1
  9 23  1  1
  3 24  2  0
 11 25  1  6
 17 26  1  1
 20 27  2  0
 21 28  1  0
M  END
$$$$
1M2Z_DEX_A_301
     RDKit          3D

 28 31  0  0  0  0  0  0  0  0999 V2000
   30.8150    6.8380    9.6380 C   0  0  0  0  0  0  0  0  0  0  0  0
   31.0790    7.5730    8.5640 C   0  0  0  0  0  0  0  0  0  0  0  0
   32.3500    8.3670    8.5490 C   0  0  0  0  0  0  0  0  0  0  0  0
   33.1920    8.3840    9.7900 C   0  0  0  0  0  0  0  0  0  0  0  0
   32.8600    7.6260   10.8320 C   0  0  0  0  0  0  0  0  0  0  0  0
   33.7450    7.7080   12.0400 C   0  0  0  0  0  0  0  0  0  0  0  0
   32.8990    8.0240   13.2700 C   0  0  0  0  0  0  0  0  0  0  0  0
   31.6540    7.1500   13.3840 C   0  0  2  0  0  0  0  0  0  0  0  0
   30.8260    7.0610   12.1020 C   0  0  1  0  0  0  0  0  0  0  0  0
   31.6650    6.7140   10.8710 C   0  0  1  0  0  0  0  0  0  0  0  0
   29.4930    6.3260   12.2370 C   0  0  2  0  0  0  0  0  0  0  0  0
   28.7280    6.5700   13.5340 C   0  0  0  0  0  0  0  0  0  0  0  0
   29.6260    6.4770   14.7670 C   0  0  1  0  0  0  0  0  0  0  0  0
   30.7830    7.4620   14.5980 C   0  0  1  0  0  0  0  0  0  0  0  0
   31.3930    7.6320   15.9860 C   0  0  0  0  0  0  0  0  0  0  0  0
   30.2030    7.4630   16.9260 C   0  0  2  0  0  0  0  0  0  0  0  0
   29.0230    7.0530   16.0480 C   0  0  2  0  0  0  0  0  0  0  0  0
   30.0650    5.0310   14.9890 C   0  0  0  0  0  0  0  0  0  0  0  0
   32.1830    5.2780   10.8610 C   0  0  0  0  0  0  0  0  0  0  0  0
   28.0530    6.1170   16.7520 C   0  0  0  0  0  0  0  0  0  0  0  0
   26.5460    6.3020   16.6910 C   0  0  0  0  0  0  0  0  0  0  0  0
   30.0040    8.7080   17.7840 C   0  0  0  0  0  0  0  0  0  0  0  0
   30.4060    8.3410   11.8910 F   0  0  0  0  0  0  0  0  0  0  0  0
   32.6900    8.9850    7.5430 O   0  0  0  0  0  0  0  0  0  0  0  0
   29.7060    4.9240   12.1580 O   0  0  0  0  0  0  0  0  0  0  0  0
   28.3010    8.2390   15.7480 O   0  0  0  0  0  0  0  0  0  0  0  0
   28.4710    5.1550   17.3930 O   0  0  0  0  0  0  0  0  0  0  0  0
   25.9300    5.1110   16.2250 O   0  0  0  0  0  0  0  0  0  0  0  0
  1  2  2  0
  2  3  1  0
  3  4  1  0
  4  5  2  0
  5  6  1  0
  6  7  1  0
  8  7  1  6
  8  9  1  0
  1 10  1  0
  5 10  1  0
  9 10  1  0
  9 11  1  0
 11 12  1  0
 12 13  1  0
  8 14  1  0
 13 14  1  0
 14 15  1  1
 15 16  1  0
 13 17  1  0
 16 17  1  0
 13 18  1  1
 10 19  1  1
 17 20  1  0
 20 21  1  0
 16 22  1  6
  9 23  1  6
  3 24  2  0
 11 25  1  1
 17 26  1  6
 20 27  2  0
 21 28  1  0
M  END
$$$$
