1YQY_915_A_782
     RDKit          3D

 23 24  0  0  0  0  0  0  0  0999 V2000
   11.1138   21.8207   28.7956 C   0  0  0  0  0  0  0  0  0  0  0  0
   12.1891   21.1318   29.4414 C   0  0  0  0  0  0  0  0  0  0  0  0
   13.3569   21.8519   29.8010 C   0  0  0  0  0  0  0  0  0  0  0  0
   13.4043   23.2337   29.4888 C   0  0  0  0  0  0  0  0  0  0  0  0
   12.3462   23.9204   28.7971 C   0  0  0  0  0  0  0  0  0  0  0  0
   11.2025   23.2041   28.4709 C   0  0  0  0  0  0  0  0  0  0  0  0
   14.4823   23.9475   29.8520 F   0  0  0  0  0  0  0  0  0  0  0  0
   14.4847   21.1740   30.5332 C   0  0  0  0  0  0  0  0  0  0  0  0
    9.6273   20.9402   28.4196 S   0  0  2  0  0  0  0  0  0  0  0  0
    9.9921   19.7927   27.1739 N   0  0  0  0  0  0  0  0  0  0  0  0
    9.3381   19.9340   25.8694 C   0  0  1  0  0  0  0  0  0  0  0  0
   10.1513   20.7840   24.8702 C   0  0  0  0  0  0  0  0  0  0  0  0
   10.0576   22.1317   25.0655 N   0  0  0  0  0  0  0  0  0  0  0  0
   11.1762   22.9158   24.8292 O   0  0  0  0  0  0  0  0  0  0  0  0
   10.8029   20.3241   23.9763 O   0  0  0  0  0  0  0  0  0  0  0  0
    8.7361   21.8030   27.7229 O   0  0  0  0  0  0  0  0  0  0  0  0
    9.2231   20.1914   29.5981 O   0  0  0  0  0  0  0  0  0  0  0  0
    9.0440   18.6081   25.1409 C   0  0  1  0  0  0  0  0  0  0  0  0
    7.9369   17.6941   25.7699 C   0  0  0  0  0  0  0  0  0  0  0  0
    7.6792   16.3962   25.0132 C   0  0  0  0  0  0  0  0  0  0  0  0
    7.3791   16.6892   23.6633 O   0  0  0  0  0  0  0  0  0  0  0  0
    8.4074   17.4111   22.9517 C   0  0  0  0  0  0  0  0  0  0  0  0
    8.6917   18.7577   23.6416 C   0  0  0  0  0  0  0  0  0  0  0  0
  1  2  2  0
  2  3  1  0
  3  4  2  0
  4  5  1  0
  1  6  1  0
  5  6  2  0
  4  7  1  0
  3  8  1  0
  1  9  1  0
  9 10  1  6
 11 10  1  1
 11 12  1  0
 12 13  1  0
 13 14  1  0
 12 15  2  0
  9 16  2  0
  9 17  2  0
 11 18  1  0
 18 19  1  1
 19 20  1  0
 20 21  1  0
 21 22  1  0
 18 23  1  0
 22 23  1  0
M  END
