1IG3_VIB_B_501
     RDKit          3D

 35 36  0  0  0  0  0  0  0  0999 V2000
   -4.2048    0.7295   -3.2024 C   0  0  0  0  0  0  0  0  0  0  0  0
   -1.9053    2.0537    0.8728 N   0  0  0  0  0  0  0  0  0  0  0  0
    0.5492   -1.8470   -0.5090 C   0  0  0  0  0  0  0  0  0  0  0  0
    3.6028   -2.9171    0.5481 O   0  0  0  0  0  0  0  0  0  0  0  0
    4.2966   -1.7011    0.5053 C   0  0  0  0  0  0  0  0  0  0  0  0
    3.4223   -0.6121   -0.1164 C   0  0  0  0  0  0  0  0  0  0  0  0
    0.5939    0.4002    2.4282 C   0  0  0  0  0  0  0  0  0  0  0  0
    2.2136    0.6535    2.0791 S   0  0  0  0  0  0  0  0  0  0  0  0
    2.2059   -0.3393    0.7237 C   0  0  0  0  0  0  0  0  0  0  0  0
    0.9206   -0.8836    0.5866 C   0  0  0  0  0  0  0  0  0  0  0  0
    0.0207   -0.4282    1.5202 N   0  0  0  0  0  4  0  0  0  0  0  0
   -1.3991   -0.8102    1.6020 C   0  0  0  0  0  0  0  0  0  0  0  0
   -2.3618    0.9890    0.0341 C   0  0  0  0  0  0  0  0  0  0  0  0
   -3.0182    1.3037   -1.1143 N   0  0  0  0  0  0  0  0  0  0  0  0
   -3.5251    0.3452   -1.9309 C   0  0  0  0  0  0  0  0  0  0  0  0
   -3.3709   -0.9642   -1.6116 N   0  0  0  0  0  0  0  0  0  0  0  0
   -2.7208   -1.3363   -0.4806 C   0  0  0  0  0  0  0  0  0  0  0  0
   -2.1710   -0.3693    0.3754 C   0  0  0  0  0  0  0  0  0  0  0  0
   -4.9744   -0.0255   -3.4688 H   0  0  0  0  0  0  0  0  0  0  0  0
   -4.7001    1.7170   -3.0888 H   0  0  0  0  0  0  0  0  0  0  0  0
   -3.4549    0.7894   -4.0183 H   0  0  0  0  0  0  0  0  0  0  0  0
   -1.5888    1.8940    1.8517 H   0  0  0  0  0  0  0  0  0  0  0  0
   -1.9894    3.0419    0.5465 H   0  0  0  0  0  0  0  0  0  0  0  0
    0.0809   -1.2923   -1.3481 H   0  0  0  0  0  0  0  0  0  0  0  0
    1.4330   -2.3936   -0.8918 H   0  0  0  0  0  0  0  0  0  0  0  0
   -0.1530   -2.6143   -0.1275 H   0  0  0  0  0  0  0  0  0  0  0  0
    4.2205   -3.5716    0.9662 H   0  0  0  0  0  0  0  0  0  0  0  0
    5.2149   -1.8187   -0.1119 H   0  0  0  0  0  0  0  0  0  0  0  0
    4.5986   -1.3988    1.5336 H   0  0  0  0  0  0  0  0  0  0  0  0
    3.1361   -0.8936   -1.1513 H   0  0  0  0  0  0  0  0  0  0  0  0
    4.0183    0.3226   -0.1906 H   0  0  0  0  0  0  0  0  0  0  0  0
    0.0719    0.8394    3.2686 H   0  0  0  0  0  0  0  0  0  0  0  0
   -1.8769   -0.3631    2.5010 H   0  0  0  0  0  0  0  0  0  0  0  0
   -1.4685   -1.9102    1.7450 H   0  0  0  0  0  0  0  0  0  0  0  0
   -2.6198   -2.3908   -0.2592 H   0  0  0  0  0  0  0  0  0  0  0  0
  4  5  1  0
  5  6  1  0
  7  8  1  0
  6  9  1  0
  8  9  1  0
  3 10  1  0
  9 10  2  0
  7 11  2  0
 10 11  1  0
 11 12  1  0
  2 13  1  0
 13 14  2  0
  1 15  1  0
 14 15  1  0
 15 16  2  0
 16 17  1  0
 12 18  1  0
 13 18  1  0
 17 18  2  0
  1 19  1  0
  1 20  1  0
  1 21  1  0
  2 22  1  0
  2 23  1  0
  3 24  1  0
  3 25  1  0
  3 26  1  0
  4 27  1  0
  5 28  1  0
  5 29  1  0
  6 30  1  0
  6 31  1  0
  7 32  1  0
 12 33  1  0
 12 34  1  0
 17 35  1  0
M  CHG  1  11   1
M  END
