8C3N_ADP_A_401
     RDKit          3D

 27 29  0  0  0  0  0  0  0  0999 V2000
   18.9306  -41.6178  -47.4711 P   0  0  2  0  0  0  0  0  0  0  0  0
   19.1300  -43.0334  -46.9934 O   0  0  0  0  0  0  0  0  0  0  0  0
   19.9367  -40.6555  -46.8899 O   0  0  0  0  0  0  0  0  0  0  0  0
   17.5086  -41.1340  -47.3291 O   0  0  0  0  0  0  0  0  0  0  0  0
   18.2778  -41.3303  -50.2975 P   0  0  1  0  0  0  0  0  0  0  0  0
   17.1592  -42.3185  -50.2825 O   0  0  0  0  0  0  0  0  0  0  0  0
   17.9388  -39.8770  -50.2904 O   0  0  0  0  0  0  0  0  0  0  0  0
   19.2378  -41.6404  -49.0534 O   0  0  0  0  0  0  0  0  0  0  0  0
   19.2345  -41.6627  -51.5387 O   0  0  0  0  0  0  0  0  0  0  0  0
   20.2458  -40.7295  -51.9781 C   0  0  0  0  0  0  0  0  0  0  0  0
   20.1388  -40.5957  -53.4766 C   0  0  1  0  0  0  0  0  0  0  0  0
   18.7410  -40.6960  -53.8534 O   0  0  0  0  0  0  0  0  0  0  0  0
   20.6494  -39.2781  -54.0804 C   0  0  1  0  0  0  0  0  0  0  0  0
   21.4349  -39.5156  -55.2394 O   0  0  0  0  0  0  0  0  0  0  0  0
   19.3590  -38.5482  -54.4568 C   0  0  1  0  0  0  0  0  0  0  0  0
   19.5210  -37.6423  -55.5255 O   0  0  0  0  0  0  0  0  0  0  0  0
   18.4470  -39.7149  -54.8164 C   0  0  2  0  0  0  0  0  0  0  0  0
   17.0398  -39.3548  -54.7227 N   0  0  0  0  0  0  0  0  0  0  0  0
   16.3246  -39.1638  -53.5681 C   0  0  0  0  0  0  0  0  0  0  0  0
   15.0816  -38.8144  -53.7788 N   0  0  0  0  0  0  0  0  0  0  0  0
   14.9661  -38.7662  -55.1598 C   0  0  0  0  0  0  0  0  0  0  0  0
   13.8872  -38.4552  -56.0089 C   0  0  0  0  0  0  0  0  0  0  0  0
   12.6755  -38.1225  -55.5741 N   0  0  0  0  0  0  0  0  0  0  0  0
   14.1089  -38.5046  -57.3429 N   0  0  0  0  0  0  0  0  0  0  0  0
   15.3307  -38.8385  -57.7742 C   0  0  0  0  0  0  0  0  0  0  0  0
   16.4169  -39.1480  -57.0711 N   0  0  0  0  0  0  0  0  0  0  0  0
   16.1690  -39.0932  -55.7537 C   0  0  0  0  0  0  0  0  0  0  0  0
  1  2  2  0
  1  3  1  1
  1  4  1  0
  5  6  2  0
  5  7  1  6
  1  8  1  0
  5  8  1  0
  5  9  1  0
  9 10  1  0
 11 10  1  1
 11 12  1  0
 11 13  1  0
 13 14  1  6
 13 15  1  0
 15 16  1  6
 12 17  1  0
 15 17  1  0
 17 18  1  1
 18 19  1  0
 19 20  2  0
 20 21  1  0
 21 22  2  0
 22 23  1  0
 22 24  1  0
 24 25  2  0
 25 26  1  0
 18 27  1  0
 21 27  1  0
 26 27  2  0
M  END
