7T2I_E9F_A_1705
     RDKit          3D

 29 33  0  0  0  0  0  0  0  0999 V2000
 -127.9519 -171.6458  112.3129 C   0  0  2  0  0  0  0  0  0  0  0  0
 -125.8579 -171.2955  113.5774 C   0  0  0  0  0  0  0  0  0  0  0  0
 -130.1463 -171.7650  115.8696 C   0  0  0  0  0  0  0  0  0  0  0  0
 -133.5923 -172.8374  116.7480 C   0  0  0  0  0  0  0  0  0  0  0  0
 -133.4329 -172.9367  114.4269 C   0  0  0  0  0  0  0  0  0  0  0  0
 -131.6944 -172.4653  113.1861 C   0  0  0  0  0  0  0  0  0  0  0  0
 -124.7618 -171.3487  118.2775 C   0  0  0  0  0  0  0  0  0  0  0  0
 -127.6011 -170.6295  118.4273 C   0  0  2  0  0  0  0  0  0  0  0  0
 -128.3388 -169.8631  119.4433 C   0  0  0  0  0  0  0  0  0  0  0  0
 -127.3396 -169.1286  118.5570 C   0  0  0  0  0  0  0  0  0  0  0  0
 -128.2089 -171.0288  117.1375 C   0  0  0  0  0  0  0  0  0  0  0  0
 -128.0539 -171.4206  114.8232 C   0  0  0  0  0  0  0  0  0  0  0  0
 -127.7163 -173.0955  111.9394 C   0  0  0  0  0  0  0  0  0  0  0  0
 -127.3894 -170.6962  111.2977 C   0  0  0  0  0  0  0  0  0  0  0  0
 -125.6047 -170.1376  112.6052 C   0  0  0  0  0  0  0  0  0  0  0  0
 -131.5063 -172.2070  115.6608 C   0  0  0  0  0  0  0  0  0  0  0  0
 -132.2924 -172.3964  116.8141 C   0  0  0  0  0  0  0  0  0  0  0  0
 -132.1071 -172.4880  114.4824 C   0  0  0  0  0  0  0  0  0  0  0  0
 -132.7428 -172.8829  112.3947 C   0  0  0  0  0  0  0  0  0  0  0  0
 -129.5578 -171.3978  117.0298 C   0  0  0  0  0  0  0  0  0  0  0  0
 -126.6602 -173.1745  118.8200 N   0  0  0  0  0  0  0  0  0  0  0  0
 -127.4942 -171.0549  116.0066 N   0  0  0  0  0  0  0  0  0  0  0  0
 -127.3003 -171.4519  113.6099 N   0  0  0  0  0  0  0  0  0  0  0  0
 -129.3469 -171.7655  114.7635 N   0  0  0  0  0  0  0  0  0  0  0  0
 -134.1602 -173.1060  115.5553 N   0  0  0  0  0  0  0  0  0  0  0  0
 -133.7949 -173.1661  113.1665 N   0  0  0  0  0  0  0  0  0  0  0  0
 -126.0044 -170.5986  111.3543 O   0  0  0  0  0  0  0  0  0  0  0  0
 -126.1801 -171.4877  120.5590 O   0  0  0  0  0  0  0  0  0  0  0  0
 -126.3116 -171.6947  119.0787 S   0  0  1  0  0  0  0  0  0  0  0  0
  8  9  1  0
  8 10  1  0
  9 10  1  0
  8 11  1  6
  1 13  1  6
  1 14  1  0
  2 15  1  0
  3 16  1  0
 16 17  1  0
  4 17  2  0
  6 18  1  0
  5 18  1  0
 16 18  2  0
  6 19  2  0
  3 20  2  0
 11 20  1  0
 12 22  1  0
 11 22  2  0
  1 23  1  0
  2 23  1  0
 12 23  1  0
 12 24  2  0
  3 24  1  0
  5 25  2  0
  4 25  1  0
 19 26  1  0
  5 26  1  0
 14 27  1  0
 15 27  1  0
 28 29  2  0
 29  7  1  6
  8 29  1  0
 21 29  2  0
M  END
$$$$
