8FLN_Y7W_A_701
     RDKit          3D

 55 57  0  0  0  0  0  0  0  0999 V2000
   -6.7144    3.5041  -11.8247 N   0  0  0  0  0  0  0  0  0  0  0  0
   -4.4380    4.3349  -11.1125 C   0  0  0  0  0  0  0  0  0  0  0  0
   -3.3093    3.8222  -10.4824 C   0  0  0  0  0  0  0  0  0  0  0  0
   -3.2443    2.7570   -9.4601 C   0  0  0  0  0  0  0  0  0  0  0  0
   -2.3722    2.8913   -8.3684 C   0  0  0  0  0  0  0  0  0  0  0  0
   -2.2884    1.8853   -7.4011 C   0  0  0  0  0  0  0  0  0  0  0  0
   -3.0021   -0.3532   -6.4717 C   0  0  0  0  0  0  0  0  0  0  0  0
   -4.4527   -1.5798   -9.0235 C   0  0  0  0  0  0  0  0  0  0  0  0
   -6.3324   -2.2218  -10.4302 C   0  0  0  0  0  0  0  0  0  0  0  0
   -7.0049   -1.0534  -10.0732 C   0  0  0  0  0  0  0  0  0  0  0  0
   -3.8437    1.7465   -8.3179 C   0  0  0  0  0  0  0  0  0  0  0  0
   -4.0059    1.5834   -9.5881 C   0  0  0  0  0  0  0  0  0  0  0  0
   -2.2216    7.1482  -13.5467 C   0  0  0  0  0  0  0  0  0  0  0  0
   -6.3206    4.2832   -9.6735 O   0  0  0  0  0  0  0  0  0  0  0  0
   -5.8580    4.0530  -10.8222 C   0  0  0  0  0  0  0  0  0  0  0  0
   -3.0616    0.7207   -7.5228 C   0  0  0  0  0  0  0  0  0  0  0  0
   -2.8017   -1.6574   -7.0982 N   0  0  0  0  0  0  0  0  0  0  0  0
   -3.1145   -1.9031   -8.4788 C   0  0  0  0  0  0  0  0  0  0  0  0
   -5.0627   -2.4829   -9.9121 C   0  0  0  0  0  0  0  0  0  0  0  0
   -6.9157   -3.1083  -11.2746 F   0  0  0  0  0  0  0  0  0  0  0  0
   -6.4057   -0.1354   -9.2078 C   0  0  0  0  0  0  0  0  0  0  0  0
   -5.1193   -0.3800   -8.6842 C   0  0  0  0  0  0  0  0  0  0  0  0
   -4.4741    0.5550   -7.8572 O   0  0  0  0  0  0  0  0  0  0  0  0
   -2.2532   -2.4328   -9.2334 O   0  0  0  0  0  0  0  0  0  0  0  0
   -3.9212    0.5774   -8.6220 C   0  0  0  0  0  0  0  0  0  0  0  0
   -2.2073    4.4013  -11.0000 N   0  0  0  0  0  0  0  0  0  0  0  0
   -2.5778    5.2605  -11.9387 N   0  0  0  0  0  4  0  0  0  0  0  0
   -1.5820    6.0426  -12.6913 C   0  0  1  0  0  0  0  0  0  0  0  0
   -0.6274    5.1325  -13.4831 C   0  0  1  0  0  0  0  0  0  0  0  0
    0.6887    5.3388  -13.1187 F   0  0  0  0  0  0  0  0  0  0  0  0
   -0.9492    3.8062  -13.2561 F   0  0  0  0  0  0  0  0  0  0  0  0
   -0.7588    5.3916  -14.8352 F   0  0  0  0  0  0  0  0  0  0  0  0
   -3.9320    5.2338  -12.0382 C   0  0  0  0  0  0  0  0  0  0  0  0
   -4.7259    6.0633  -12.8949 N   0  0  0  0  0  0  0  0  0  0  0  0
   -6.3362    3.2050  -12.7504 H   0  0  0  0  0  0  0  0  0  0  0  0
   -7.7265    3.3468  -11.6222 H   0  0  0  0  0  0  0  0  0  0  0  0
   -1.7672    3.7824   -8.2563 H   0  0  0  0  0  0  0  0  0  0  0  0
   -1.6216    2.0162   -6.5578 H   0  0  0  0  0  0  0  0  0  0  0  0
   -3.9237   -0.3677   -5.8496 H   0  0  0  0  0  0  0  0  0  0  0  0
   -2.1531   -0.1426   -5.7859 H   0  0  0  0  0  0  0  0  0  0  0  0
   -7.9910   -0.8539  -10.4729 H   0  0  0  0  0  0  0  0  0  0  0  0
   -4.5873    2.4031   -8.8185 H   0  0  0  0  0  0  0  0  0  0  0  0
   -3.0188    1.4969   -9.0181 H   0  0  0  0  0  0  0  0  0  0  0  0
   -3.4173    2.2889   -7.4498 H   0  0  0  0  0  0  0  0  0  0  0  0
   -4.6553    1.4362  -10.4418 H   0  0  0  0  0  0  0  0  0  0  0  0
   -1.4899    7.9707  -13.6987 H   0  0  0  0  0  0  0  0  0  0  0  0
   -3.1102    7.5711  -13.0317 H   0  0  0  0  0  0  0  0  0  0  0  0
   -2.5133    6.7890  -14.5521 H   0  0  0  0  0  0  0  0  0  0  0  0
   -2.3182   -2.3970   -6.5401 H   0  0  0  0  0  0  0  0  0  0  0  0
   -4.5612   -3.4030  -10.1901 H   0  0  0  0  0  0  0  0  0  0  0  0
   -6.9472    0.7672   -8.9614 H   0  0  0  0  0  0  0  0  0  0  0  0
   -4.5242   -0.3158   -8.7318 H   0  0  0  0  0  0  0  0  0  0  0  0
   -0.9486    6.5749  -11.9449 H   0  0  0  0  0  0  0  0  0  0  0  0
   -5.7586    6.1286  -12.7633 H   0  0  0  0  0  0  0  0  0  0  0  0
   -4.3195    6.6141  -13.6752 H   0  0  0  0  0  0  0  0  0  0  0  0
  2  3  4  0
  3  4  1  0
  4  5  4  0
  5  6  4  0
  9 10  4  0
  4 12  4  0
  1 15  1  0
  2 15  1  0
 14 15  2  0
  7 16  1  0
  6 16  4  0
  7 17  1  0
  8 18  1  0
 17 18  1  0
  9 19  4  0
  8 19  4  0
  9 20  1  0
 10 21  4  0
 21 22  4  0
  8 22  4  0
 22 23  1  0
 11 23  1  0
 18 24  2  0
 12 25  4  0
 16 25  4  0
  3 26  4  0
 26 27  4  0
 28 13  1  0
 27 28  1  0
 28 29  1  0
 29 30  1  6
 29 31  1  0
 29 32  1  0
 27 33  4  0
  2 33  4  0
 33 34  1  0
  1 35  1  0
  1 36  1  0
  5 37  1  0
  6 38  1  0
  7 39  1  0
  7 40  1  0
 10 41  1  0
 11 42  1  0
 11 43  1  0
 11 44  1  0
 12 45  1  0
 13 46  1  0
 13 47  1  0
 13 48  1  0
 17 49  1  0
 19 50  1  0
 21 51  1  0
 25 52  1  0
 28 53  1  6
 34 54  1  0
 34 55  1  0
M  CHG  1  27   1
M  END
