7D9L_GSF_A_305
     RDKit          3D

 39 38  0  0  0  0  0  0  0  0999 V2000
   12.7008   22.8234   15.7282 C   0  0  2  0  0  0  0  0  0  0  0  0
   11.4092   23.1889   14.9763 C   0  0  2  0  0  0  0  0  0  0  0  0
   11.4018   24.6257   14.5384 C   0  0  0  0  0  0  0  0  0  0  0  0
   11.4982   25.5339   15.4076 O   0  0  0  0  0  0  0  0  0  0  0  0
   12.7714   23.5929   18.0890 C   0  0  0  0  0  0  0  0  0  0  0  0
   12.0228   24.5142   18.8159 O   0  0  0  0  0  0  0  0  0  0  0  0
   13.0395   22.4672   18.5905 O   0  0  0  0  0  0  0  0  0  0  0  0
   14.6636   24.0463   16.6273 N   0  0  0  0  0  0  0  0  0  0  0  0
   13.2037   23.9240   16.6871 C   0  0  1  0  0  0  0  0  0  0  0  0
   11.3166   24.9538   13.1412 N   0  0  0  0  0  0  0  0  0  0  0  0
   10.6331   24.1337   12.1353 C   0  0  1  0  0  0  0  0  0  0  0  0
   10.5700   24.8533   10.7750 C   0  0  2  0  0  0  0  0  0  0  0  0
   10.6950   23.6750    9.4049 S   0  0  0  0  0  4  0  0  0  0  0  0
   12.1042   23.8841    8.8642 O   0  0  0  0  0  0  0  0  0  0  0  0
   10.7706   22.1406   10.1463 O   0  0  0  0  0  0  0  0  0  0  0  0
   11.2682   22.7663   12.0597 C   0  0  0  0  0  0  0  0  0  0  0  0
   10.9020   21.9437   11.1762 O   0  0  0  0  0  0  0  0  0  0  0  0
   12.3269   22.4229   12.9653 N   0  0  0  0  0  0  0  0  0  0  0  0
   12.4091   21.1200   13.6196 C   0  0  2  0  0  0  0  0  0  0  0  0
   11.9303   21.2142   15.0322 C   0  0  0  0  0  0  0  0  0  0  0  0
   11.4147   20.0885   15.6667 O   0  0  0  0  0  0  0  0  0  0  0  0
   11.9999   22.3107   15.6494 O   0  0  0  0  0  0  0  0  0  0  0  0
   13.4915   22.5999   14.9784 H   0  0  0  0  0  0  0  0  0  0  0  0
   12.5188   21.8889   16.3050 H   0  0  0  0  0  0  0  0  0  0  0  0
   10.5409   23.0209   15.6507 H   0  0  0  0  0  0  0  0  0  0  0  0
   11.2739   22.5113   14.1061 H   0  0  0  0  0  0  0  0  0  0  0  0
   11.7102   25.3803   18.3928 H   0  0  0  0  0  0  0  0  0  0  0  0
   14.9770   23.8235   15.6549 H   0  0  0  0  0  0  0  0  0  0  0  0
   14.9192   25.0512   16.7686 H   0  0  0  0  0  0  0  0  0  0  0  0
   12.7418   24.8984   16.4102 H   0  0  0  0  0  0  0  0  0  0  0  0
   11.7058   25.8707   12.8256 H   0  0  0  0  0  0  0  0  0  0  0  0
    9.5816   23.9990   12.4740 H   0  0  0  0  0  0  0  0  0  0  0  0
   11.3725   25.6131   10.6750 H   0  0  0  0  0  0  0  0  0  0  0  0
    9.5929   25.3749   10.6861 H   0  0  0  0  0  0  0  0  0  0  0  0
   10.9166   22.3194   11.1098 H   0  0  0  0  0  0  0  0  0  0  0  0
   13.0440   23.1438   13.2062 H   0  0  0  0  0  0  0  0  0  0  0  0
   13.4549   20.7472   13.5891 H   0  0  0  0  0  0  0  0  0  0  0  0
   11.7694   20.3920   13.0759 H   0  0  0  0  0  0  0  0  0  0  0  0
   11.0001   20.1538   16.5877 H   0  0  0  0  0  0  0  0  0  0  0  0
  1  2  1  0
  2  3  1  0
  3  4  2  0
  5  6  1  0
  5  7  2  0
  1  9  1  0
  5  9  1  0
  9  8  1  0
  3 10  1  0
 10 11  1  0
 11 12  1  0
 12 13  1  0
 13 14  2  0
 13 15  1  1
 11 16  1  0
 16 17  2  0
 16 18  1  0
 18 19  1  0
 19 20  1  0
 20 21  1  0
 20 22  2  0
  1 23  1  6
  1 24  1  0
  2 25  1  1
  2 26  1  0
  6 27  1  0
  8 28  1  0
  8 29  1  0
  9 30  1  6
 10 31  1  0
 11 32  1  1
 12 33  1  1
 12 34  1  0
 15 35  1  0
 18 36  1  0
 19 37  1  1
 19 38  1  0
 21 39  1  0
M  END
