@<TRIPOS>MOLECULE
1KZK_JE2_A_701
 78 81 0 0 0
SMALL
GASTEIGER

@<TRIPOS>ATOM
      1 C          23.6870    3.4480   20.9470 C.ar    1  UNL1       -0.0199
      2 C          22.3390    3.4320   20.7260 C.ar    1  UNL1       -0.0576
      3 C          21.7270    2.3540   20.0240 C.ar    1  UNL1       -0.0492
      4 C          22.5330    1.3470   19.4330 C.ar    1  UNL1        0.0431
      5 C          23.9500    1.3580   19.6050 C.ar    1  UNL1        0.0030
      6 C          24.5000    2.3990   20.4240 C.ar    1  UNL1        0.1205
      7 C          24.8990    0.3740   18.9300 C.3     1  UNL1       -0.0355
      8 C          21.8480    0.2670   18.6660 C.2     1  UNL1        0.2448
      9 O          25.8560    2.4460   20.5620 O.3     1  UNL1       -0.5065
     10 O          22.0690   -0.9900   18.9430 O.2     1  UNL1       -0.2702
     11 C          20.3600   -1.7850   14.9420 C.2     1  UNL1        0.2473
     12 N          20.9700    0.6590   17.7570 N.am    1  UNL1       -0.3052
     13 O          19.2990   -1.8640   14.2880 O.2     1  UNL1       -0.2727
     14 C          20.8680   -0.5040   15.6030 C.3     1  UNL1        0.1495
     15 C          18.1480    0.6370   18.2120 C.ar    1  UNL1       -0.0455
     16 C          18.6860    0.1940   16.8740 C.3     1  UNL1       -0.0063
     17 C          17.3240    1.4600   20.8120 C.ar    1  UNL1       -0.0617
     18 C          20.1730   -0.3620   16.9800 C.3     1  UNL1        0.0618
     19 O          20.5210    0.5820   14.7460 O.3     1  UNL1       -0.3807
     20 C          18.0940    2.0320   18.5210 C.ar    1  UNL1       -0.0585
     21 C          17.7970   -0.2950   19.2130 C.ar    1  UNL1       -0.0585
     22 C          17.6770    2.4080   19.8380 C.ar    1  UNL1       -0.0615
     23 C          17.3750    0.1040   20.4720 C.ar    1  UNL1       -0.0615
     24 C          19.4740   -4.7460   15.4830 C.2     1  UNL1        0.2352
     25 N          21.1050   -2.9230   15.1300 N.am    1  UNL1       -0.2771
     26 O          19.3600   -4.5020   16.7210 O.2     1  UNL1       -0.2737
     27 C          20.6350   -4.2260   14.6100 C.3     1  UNL1        0.1171
     28 C          21.8980   -5.1370   14.5960 C.3     1  UNL1        0.0395
     29 C          22.3900   -2.9470   15.9220 C.3     1  UNL1        0.0624
     30 C          22.7450   -4.7600   13.3790 C.3     1  UNL1       -0.0485
     31 C          21.5620   -6.6380   14.5150 C.3     1  UNL1       -0.0485
     32 S          22.7750   -4.7050   16.1440 S.3     1  UNL1       -0.1331
     33 N          18.5680   -5.5610   14.7910 N.am    1  UNL1       -0.3096
     34 C          17.4260   -6.2060   15.4830 C.3     1  UNL1        0.0371
     35 C          16.1360   -5.9810   14.6820 C.ar    1  UNL1       -0.0274
     36 C          15.4800   -4.7310   14.6670 C.ar    1  UNL1       -0.0458
     37 C          14.2670   -4.6240   13.9790 C.ar    1  UNL1       -0.0585
     38 C          13.7360   -5.7470   13.2960 C.ar    1  UNL1       -0.0615
     39 C          14.3650   -6.9590   13.3090 C.ar    1  UNL1       -0.0614
     40 C          15.5770   -7.0730   14.0280 C.ar    1  UNL1       -0.0568
     41 C          16.0130   -3.5750   15.4200 C.3     1  UNL1       -0.0394
     42 H          24.1148    4.2147   21.4893 H       1  UNL1        0.0654
     43 H          21.7567    4.2106   21.0719 H       1  UNL1        0.0619
     44 H          20.6991    2.3056   19.9455 H       1  UNL1        0.0625
     45 H          24.3333   -0.3335   18.3604 H       1  UNL1        0.0279
     46 H          25.4678   -0.1415   19.6755 H       1  UNL1        0.0279
     47 H          25.5619    0.9064   18.2804 H       1  UNL1        0.0279
     48 H          26.2504    3.1124   21.0895 H       1  UNL1        0.2921
     49 H          20.8358    1.6193   17.5866 H       1  UNL1        0.1494
     50 H          21.9274   -0.5195   15.7523 H       1  UNL1        0.0709
     51 H          18.6769    1.0291   16.2051 H       1  UNL1        0.0332
     52 H          18.0632   -0.5985   16.5149 H       1  UNL1        0.0332
     53 H          17.0337    1.7568   21.7568 H       1  UNL1        0.0618
     54 H          20.1298   -1.3287   17.4367 H       1  UNL1        0.0532
     55 H          19.5604    0.5940   14.6121 H       1  UNL1        0.2105
     56 H          18.3471    2.7440   17.8182 H       1  UNL1        0.0620
     57 H          17.8563   -1.3033   19.0012 H       1  UNL1        0.0620
     58 H          17.6344    3.4103   20.0799 H       1  UNL1        0.0618
     59 H          17.0955   -0.6070   21.1658 H       1  UNL1        0.0618
     60 H          20.2259   -4.1810   13.6223 H       1  UNL1        0.0611
     61 H          22.2560   -2.4691   16.8699 H       1  UNL1        0.0580
     62 H          23.1786   -2.4237   15.4228 H       1  UNL1        0.0580
     63 H          22.2186   -5.0188   12.4841 H       1  UNL1        0.0244
     64 H          23.6736   -5.2905   13.4126 H       1  UNL1        0.0244
     65 H          22.9351   -3.7071   13.3891 H       1  UNL1        0.0244
     66 H          21.0521   -6.8403   13.5963 H       1  UNL1        0.0244
     67 H          20.9341   -6.9079   15.3383 H       1  UNL1        0.0244
     68 H          22.4663   -7.2086   14.5541 H       1  UNL1        0.0244
     69 H          18.6923   -5.7084   13.8256 H       1  UNL1        0.1491
     70 H          17.3165   -5.7811   16.4589 H       1  UNL1        0.0512
     71 H          17.6113   -7.2566   15.5650 H       1  UNL1        0.0512
     72 H          13.7579   -3.7264   13.9686 H       1  UNL1        0.0620
     73 H          12.8508   -5.6459   12.7752 H       1  UNL1        0.0618
     74 H          13.9670   -7.7688   12.8082 H       1  UNL1        0.0618
     75 H          16.0567   -7.9859   14.0682 H       1  UNL1        0.0621
     76 H          16.9423   -3.8447   15.8768 H       1  UNL1        0.0278
     77 H          15.3131   -3.2892   16.1772 H       1  UNL1        0.0278
     78 H          16.1692   -2.7548   14.7508 H       1  UNL1        0.0278
@<TRIPOS>BOND
     1     1     2   ar
     2     2     3   ar
     3     3     4   ar
     4     4     5   ar
     5     1     6   ar
     6     5     6   ar
     7     5     7    1
     8     4     8    1
     9     6     9    1
    10     8    10    2
    11     8    12   am
    12    11    13    2
    13    11    14    1
    14    15    16    1
    15    12    18    1
    16    18    16    1
    17    14    18    1
    18    14    19    1
    19    15    20   ar
    20    15    21   ar
    21    20    22   ar
    22    17    22   ar
    23    17    23   ar
    24    21    23   ar
    25    11    25   am
    26    24    26    2
    27    25    27    1
    28    27    24    1
    29    27    28    1
    30    25    29    1
    31    28    30    1
    32    28    31    1
    33    29    32    1
    34    28    32    1
    35    24    33   am
    36    33    34    1
    37    34    35    1
    38    35    36   ar
    39    36    37   ar
    40    37    38   ar
    41    38    39   ar
    42    35    40   ar
    43    39    40   ar
    44    36    41    1
    45     1    42    1
    46     2    43    1
    47     3    44    1
    48     7    45    1
    49     7    46    1
    50     7    47    1
    51     9    48    1
    52    12    49    1
    53    14    50    1
    54    16    51    1
    55    16    52    1
    56    17    53    1
    57    18    54    1
    58    19    55    1
    59    20    56    1
    60    21    57    1
    61    22    58    1
    62    23    59    1
    63    27    60    1
    64    29    61    1
    65    29    62    1
    66    30    63    1
    67    30    64    1
    68    30    65    1
    69    31    66    1
    70    31    67    1
    71    31    68    1
    72    33    69    1
    73    34    70    1
    74    34    71    1
    75    37    72    1
    76    38    73    1
    77    39    74    1
    78    40    75    1
    79    41    76    1
    80    41    77    1
    81    41    78    1
