@<TRIPOS>MOLECULE
1KZK_JE2_A_701
 78 81 0 0 0
SMALL
GASTEIGER

@<TRIPOS>ATOM
      1 C          -1.6659   -6.1133   -0.0852 C.ar    1  UNL1       -0.0199
      2 C          -1.7116   -5.2947   -1.2106 C.ar    1  UNL1       -0.0576
      3 C          -0.6100   -4.5147   -1.5518 C.ar    1  UNL1       -0.0492
      4 C           0.5505   -4.5297   -0.7614 C.ar    1  UNL1        0.0431
      5 C           0.5865   -5.3241    0.4179 C.ar    1  UNL1        0.0030
      6 C          -0.5267   -6.1474    0.7244 C.ar    1  UNL1        0.1205
      7 C           1.7713   -5.2895    1.3563 C.3     1  UNL1       -0.0355
      8 C           1.6877   -3.6845   -1.1834 C.2     1  UNL1        0.2448
      9 O          -0.5350   -7.0113    1.8227 O.3     1  UNL1       -0.5065
     10 O           2.8417   -4.1851   -1.2734 O.2     1  UNL1       -0.2702
     11 C           1.7395    0.2765    0.1224 C.2     1  UNL1        0.2473
     12 N           1.4689   -2.2988   -1.4903 N.am    1  UNL1       -0.3052
     13 O           1.8056    1.5248   -0.0356 O.2     1  UNL1       -0.2727
     14 C           2.8852   -0.5642   -0.4027 C.3     1  UNL1        0.1495
     15 C           0.8744    0.0708   -3.1011 C.ar    1  UNL1       -0.0455
     16 C           2.2930   -0.4331   -2.9430 C.3     1  UNL1       -0.0063
     17 C          -1.7576    0.9986   -3.4271 C.ar    1  UNL1       -0.0617
     18 C           2.5549   -1.3392   -1.7069 C.3     1  UNL1        0.0618
     19 O           3.3202   -1.4522    0.5927 O.3     1  UNL1       -0.3807
     20 C          -0.1226   -0.7754   -3.6183 C.ar    1  UNL1       -0.0585
     21 C           0.5463    1.4035   -2.7998 C.ar    1  UNL1       -0.0585
     22 C          -1.4342   -0.3156   -3.7676 C.ar    1  UNL1       -0.0615
     23 C          -0.7665    1.8606   -2.9550 C.ar    1  UNL1       -0.0615
     24 C          -0.6149    1.6668    1.5914 C.2     1  UNL1        0.2352
     25 N           0.5894   -0.2864    0.7974 N.am    1  UNL1       -0.2771
     26 O          -0.0537    1.6515    2.7218 O.2     1  UNL1       -0.2737
     27 C          -0.7058    0.3931    0.7800 C.3     1  UNL1        0.1171
     28 C          -1.7609   -0.6042    1.3330 C.3     1  UNL1        0.0395
     29 C           0.6882   -1.4199    1.7118 C.3     1  UNL1        0.0624
     30 C          -2.9788    0.0806    1.9870 C.3     1  UNL1       -0.0485
     31 C          -2.2678   -1.5285    0.2105 C.3     1  UNL1       -0.0485
     32 S          -0.9020   -1.6293    2.5711 S.3     1  UNL1       -0.1331
     33 N          -1.2004    2.8779    1.0927 N.am    1  UNL1       -0.3096
     34 C          -1.1468    4.1370    1.8313 C.3     1  UNL1        0.0371
     35 C           0.2624    4.6870    1.8557 C.ar    1  UNL1       -0.0274
     36 C           0.8756    5.2344    0.6981 C.ar    1  UNL1       -0.0458
     37 C           2.1935    5.7191    0.7793 C.ar    1  UNL1       -0.0585
     38 C           2.8944    5.6713    1.9857 C.ar    1  UNL1       -0.0615
     39 C           2.2938    5.1311    3.1229 C.ar    1  UNL1       -0.0614
     40 C           0.9886    4.6410    3.0597 C.ar    1  UNL1       -0.0568
     41 C           0.1559    5.2910   -0.6237 C.3     1  UNL1       -0.0394
     42 H          -2.5226   -6.7281    0.1607 H       1  UNL1        0.0654
     43 H          -2.6002   -5.2740   -1.8280 H       1  UNL1        0.0619
     44 H          -0.6585   -3.9024   -2.4448 H       1  UNL1        0.0625
     45 H           2.4217   -4.4077    1.1957 H       1  UNL1        0.0279
     46 H           1.4248   -5.2125    2.4076 H       1  UNL1        0.0279
     47 H           2.3758   -6.2110    1.2293 H       1  UNL1        0.0279
     48 H           0.2623   -7.1509    2.4307 H       1  UNL1        0.2921
     49 H           0.5111   -1.9212   -1.3397 H       1  UNL1        0.1494
     50 H           3.7273    0.1317   -0.6331 H       1  UNL1        0.0709
     51 H           3.0028    0.4221   -2.9328 H       1  UNL1        0.0332
     52 H           2.5462   -1.0142   -3.8576 H       1  UNL1        0.0332
     53 H          -2.7728    1.3542   -3.5472 H       1  UNL1        0.0618
     54 H           3.4798   -1.9011   -1.9633 H       1  UNL1        0.0532
     55 H           4.2359   -1.7482    0.3443 H       1  UNL1        0.2105
     56 H           0.1142   -1.7941   -3.8981 H       1  UNL1        0.0620
     57 H           1.3066    2.0940   -2.4591 H       1  UNL1        0.0620
     58 H          -2.1981   -0.9791   -4.1511 H       1  UNL1        0.0618
     59 H          -1.0154    2.8846   -2.7143 H       1  UNL1        0.0618
     60 H          -0.9592    0.6576   -0.2707 H       1  UNL1        0.0611
     61 H           1.4774   -1.2306    2.4694 H       1  UNL1        0.0580
     62 H           0.9128   -2.3470    1.1541 H       1  UNL1        0.0580
     63 H          -3.4568    0.7842    1.2717 H       1  UNL1        0.0244
     64 H          -3.7316   -0.6761    2.2983 H       1  UNL1        0.0244
     65 H          -2.6820    0.6425    2.8979 H       1  UNL1        0.0244
     66 H          -1.4323   -2.0915   -0.2467 H       1  UNL1        0.0244
     67 H          -2.9908   -2.2713    0.6122 H       1  UNL1        0.0244
     68 H          -2.7719   -0.9382   -0.5853 H       1  UNL1        0.0244
     69 H          -1.7288    2.8526    0.1907 H       1  UNL1        0.1491
     70 H          -1.8273    4.8761    1.3584 H       1  UNL1        0.0512
     71 H          -1.5356    3.9756    2.8607 H       1  UNL1        0.0512
     72 H           2.6814    6.1386   -0.0928 H       1  UNL1        0.0620
     73 H           3.9063    6.0520    2.0398 H       1  UNL1        0.0618
     74 H           2.8411    5.0933    4.0560 H       1  UNL1        0.0618
     75 H           0.5432    4.2224    3.9546 H       1  UNL1        0.0621
     76 H          -0.8009    5.8447   -0.5192 H       1  UNL1        0.0278
     77 H           0.7624    5.8056   -1.3982 H       1  UNL1        0.0278
     78 H          -0.0455    4.2613   -0.9790 H       1  UNL1        0.0278
@<TRIPOS>BOND
     1     1     2   ar
     2     2     3   ar
     3     3     4   ar
     4     4     5   ar
     5     1     6   ar
     6     5     6   ar
     7     5     7    1
     8     4     8    1
     9     6     9    1
    10     8    10    2
    11     8    12   am
    12    11    13    2
    13    11    14    1
    14    15    16    1
    15    12    18    1
    16    18    16    1
    17    14    18    1
    18    14    19    1
    19    15    20   ar
    20    15    21   ar
    21    20    22   ar
    22    17    22   ar
    23    17    23   ar
    24    21    23   ar
    25    11    25   am
    26    24    26    2
    27    25    27    1
    28    27    24    1
    29    27    28    1
    30    25    29    1
    31    28    30    1
    32    28    31    1
    33    29    32    1
    34    28    32    1
    35    24    33   am
    36    33    34    1
    37    34    35    1
    38    35    36   ar
    39    36    37   ar
    40    37    38   ar
    41    38    39   ar
    42    35    40   ar
    43    39    40   ar
    44    36    41    1
    45     1    42    1
    46     2    43    1
    47     3    44    1
    48     7    45    1
    49     7    46    1
    50     7    47    1
    51     9    48    1
    52    12    49    1
    53    14    50    1
    54    16    51    1
    55    16    52    1
    56    17    53    1
    57    18    54    1
    58    19    55    1
    59    20    56    1
    60    21    57    1
    61    22    58    1
    62    23    59    1
    63    27    60    1
    64    29    61    1
    65    29    62    1
    66    30    63    1
    67    30    64    1
    68    30    65    1
    69    31    66    1
    70    31    67    1
    71    31    68    1
    72    33    69    1
    73    34    70    1
    74    34    71    1
    75    37    72    1
    76    38    73    1
    77    39    74    1
    78    40    75    1
    79    41    76    1
    80    41    77    1
    81    41    78    1
