7E2S_BLA_A_301
     RDKit          3D

 43 46  0  0  0  0  0  0  0  0999 V2000
   -1.7399  -16.5361  -19.2054 C   0  0  0  0  0  0  0  0  0  0  0  0
    0.3992  -17.7379  -18.6372 N   0  0  0  0  0  0  0  0  0  0  0  0
   -0.7113  -17.0811  -18.2558 C   0  0  0  0  0  0  0  0  0  0  0  0
   -0.7366  -16.9915  -16.8785 C   0  0  0  0  0  0  0  0  0  0  0  0
    0.3818  -17.5982  -16.4263 C   0  0  0  0  0  0  0  0  0  0  0  0
    1.0702  -18.0697  -17.5218 C   0  0  0  0  0  0  0  0  0  0  0  0
    0.8119  -17.7693  -14.9682 C   0  0  0  0  0  0  0  0  0  0  0  0
   -1.8259  -16.3232  -16.0361 C   0  0  0  0  0  0  0  0  0  0  0  0
   -1.4400  -14.8885  -15.7042 C   0  0  0  0  0  0  0  0  0  0  0  0
   -1.4665  -14.6400  -14.1937 C   0  0  0  0  0  0  0  0  0  0  0  0
   -0.6926  -13.7834  -13.6930 O   0  0  0  0  0  0  0  0  0  0  0  0
   -2.2445  -15.2750  -13.4383 O   0  0  0  0  0  0  0  0  0  0  0  0
    2.4023  -18.7570  -17.4685 C   0  0  0  0  0  0  0  0  0  0  0  0
    2.3493  -19.6631  -19.8116 N   0  0  0  0  0  0  0  0  0  0  0  0
    2.9469  -19.3723  -18.4706 C   0  0  0  0  0  0  0  0  0  0  0  0
    4.2896  -19.9627  -18.4908 C   0  0  0  0  0  0  0  0  0  0  0  0
    4.5371  -20.5853  -19.7205 C   0  0  0  0  0  0  0  0  0  0  0  0
    3.3465  -20.4554  -20.6065 C   0  0  0  0  0  0  0  0  0  0  0  0
    5.2540  -19.8712  -17.3306 C   0  0  0  0  0  0  0  0  0  0  0  0
    3.1480  -20.8458  -21.7056 O   0  0  0  0  0  0  0  0  0  0  0  0
    5.8164  -21.3117  -20.0857 C   0  0  0  0  0  0  0  0  0  0  0  0
    6.9855  -20.7600  -19.8827 C   0  0  0  0  0  0  0  0  0  0  0  0
    1.3565  -19.2797  -21.9473 N   0  0  0  0  0  0  0  0  0  0  0  0
    2.4345  -20.3192  -22.0072 C   0  0  0  0  0  0  0  0  0  0  0  0
    2.4424  -20.8022  -23.4049 C   0  0  0  0  0  0  0  0  0  0  0  0
    1.4883  -20.1066  -24.1741 C   0  0  0  0  0  0  0  0  0  0  0  0
    0.7748  -19.1300  -23.3275 C   0  0  0  0  0  0  0  0  0  0  0  0
    3.3689  -21.8824  -23.9322 C   0  0  0  0  0  0  0  0  0  0  0  0
    3.0779  -20.6417  -21.0803 O   0  0  0  0  0  0  0  0  0  0  0  0
    1.2328  -20.3990  -25.6525 C   0  0  0  0  0  0  0  0  0  0  0  0
    1.6047  -21.5110  -26.2227 C   0  0  0  0  0  0  0  0  0  0  0  0
   -0.1767  -18.3199  -23.6584 C   0  0  0  0  0  0  0  0  0  0  0  0
   -0.6138  -17.4919  -21.2239 N   0  0  0  0  0  0  0  0  0  0  0  0
   -1.0016  -17.6542  -22.6082 C   0  0  0  0  0  0  0  0  0  0  0  0
   -2.3256  -17.0816  -22.7899 C   0  0  0  0  0  0  0  0  0  0  0  0
   -2.7671  -16.5628  -21.5145 C   0  0  0  0  0  0  0  0  0  0  0  0
   -1.7077  -16.8310  -20.4821 C   0  0  0  0  0  0  0  0  0  0  0  0
   -3.0788  -17.0231  -24.0970 C   0  0  0  0  0  0  0  0  0  0  0  0
   -4.0812  -15.8842  -21.2124 C   0  0  0  0  0  0  0  0  0  0  0  0
   -5.2499  -16.7268  -21.7285 C   0  0  0  0  0  0  0  0  0  0  0  0
   -5.0985  -18.2085  -21.3862 C   0  0  0  0  0  0  0  0  0  0  0  0
   -6.1115  -18.8788  -21.0479 O   0  0  0  0  0  0  0  0  0  0  0  0
   -3.9699  -18.7586  -21.4297 O   0  0  0  0  0  0  0  0  0  0  0  0
  1  3  1  0
  2  3  1  0
  3  4  2  0
  4  5  1  0
  2  6  1  0
  5  6  2  0
  5  7  1  0
  4  8  1  0
  8  9  1  0
  9 10  1  0
 10 11  2  0
 10 12  1  0
  6 13  1  0
 13 15  2  0
 14 15  1  0
 15 16  1  0
 16 17  2  0
 14 18  1  0
 17 18  1  0
 16 19  1  0
 18 20  2  0
 17 21  1  0
 21 22  2  0
 23 24  1  0
 24 25  1  0
 25 26  2  0
 23 27  1  0
 26 27  1  0
 25 28  1  0
 24 29  2  0
 26 30  1  0
 30 31  2  0
 27 32  2  0
 32 34  1  0
 33 34  2  0
 34 35  1  0
 35 36  2  0
  1 37  2  0
 33 37  1  0
 36 37  1  0
 35 38  1  0
 36 39  1  0
 39 40  1  0
 40 41  1  0
 41 42  2  0
 41 43  1  0
M  END
