7N4W_P4V_A_203
     RDKit          3D

 51 54  0  0  0  0  0  0  0  0999 V2000
  -11.2201  -13.8492   10.4481 C   0  0  0  0  0  0  0  0  0  0  0  0
  -12.6697  -12.7955   12.0748 C   0  0  0  0  0  0  0  0  0  0  0  0
  -12.0548  -15.4451    8.8423 O   0  0  0  0  0  0  0  0  0  0  0  0
   -5.4013   -7.6136   12.4036 C   0  0  1  0  0  0  0  0  0  0  0  0
   -6.6240   -8.2993   12.1533 O   0  0  0  0  0  0  0  0  0  0  0  0
   -6.7187   -9.5747   11.5735 C   0  0  0  0  0  0  0  0  0  0  0  0
   -7.6943  -10.5064   11.9731 C   0  0  0  0  0  0  0  0  0  0  0  0
   -5.8062   -9.9158   10.5677 C   0  0  0  0  0  0  0  0  0  0  0  0
   -4.8530   -8.9601   10.1806 O   0  0  0  0  0  0  0  0  0  0  0  0
   -3.7744   -9.2114    9.2856 C   0  0  2  0  0  0  0  0  0  0  0  0
   -5.8625  -11.1932    9.9840 C   0  0  0  0  0  0  0  0  0  0  0  0
   -6.8236  -12.1282   10.3939 C   0  0  0  0  0  0  0  0  0  0  0  0
   -6.8214  -13.4930    9.7671 C   0  0  1  0  0  0  0  0  0  0  0  0
   -7.5498  -14.5017   10.6536 C   0  0  1  0  0  0  0  0  0  0  0  0
   -8.8888  -14.0193   11.0335 N   0  0  0  0  0  0  0  0  0  0  0  0
   -9.8278  -13.9735    9.8975 C   0  0  2  0  0  0  0  0  0  0  0  0
   -8.8521  -12.7625   11.8339 C   0  0  1  0  0  0  0  0  0  0  0  0
   -7.7878  -11.7697   11.3598 C   0  0  0  0  0  0  0  0  0  0  0  0
  -10.2553  -12.0790   11.9460 C   0  0  1  0  0  0  0  0  0  0  0  0
  -11.4011  -12.9588   11.5140 C   0  0  0  0  0  0  0  0  0  0  0  0
  -13.7499  -13.5322   11.5948 C   0  0  0  0  0  0  0  0  0  0  0  0
  -13.5914  -14.4315   10.5214 C   0  0  0  0  0  0  0  0  0  0  0  0
  -14.6837  -15.1665   10.0344 O   0  0  0  0  0  0  0  0  0  0  0  0
  -15.6561  -15.8197   10.8445 C   0  0  2  0  0  0  0  0  0  0  0  0
  -12.3081  -14.5869    9.9310 C   0  0  0  0  0  0  0  0  0  0  0  0
  -13.0062  -16.2417    8.1454 C   0  0  2  0  0  0  0  0  0  0  0  0
  -12.8259  -12.0883   12.8802 H   0  0  0  0  0  0  0  0  0  0  0  0
   -5.1629   -6.9363   11.5565 H   0  0  0  0  0  0  0  0  0  0  0  0
   -5.4745   -7.0349   13.3484 H   0  0  0  0  0  0  0  0  0  0  0  0
   -4.5837   -8.3562   12.5050 H   0  0  0  0  0  0  0  0  0  0  0  0
   -8.3887  -10.2524   12.7617 H   0  0  0  0  0  0  0  0  0  0  0  0
   -3.3759  -10.2354    9.4458 H   0  0  0  0  0  0  0  0  0  0  0  0
   -2.9634   -8.4805    9.4812 H   0  0  0  0  0  0  0  0  0  0  0  0
   -4.1142   -9.0924    8.2351 H   0  0  0  0  0  0  0  0  0  0  0  0
   -5.1529  -11.4746    9.2171 H   0  0  0  0  0  0  0  0  0  0  0  0
   -7.3020  -13.4398    8.7674 H   0  0  0  0  0  0  0  0  0  0  0  0
   -5.7760  -13.8433    9.6228 H   0  0  0  0  0  0  0  0  0  0  0  0
   -7.6252  -15.4778   10.1263 H   0  0  0  0  0  0  0  0  0  0  0  0
   -6.9514  -14.6826   11.5740 H   0  0  0  0  0  0  0  0  0  0  0  0
   -9.6175  -13.0980    9.2444 H   0  0  0  0  0  0  0  0  0  0  0  0
   -9.7288  -14.8974    9.2882 H   0  0  0  0  0  0  0  0  0  0  0  0
   -8.5603  -13.0581   12.8661 H   0  0  0  0  0  0  0  0  0  0  0  0
  -10.4103  -11.7400   12.9943 H   0  0  0  0  0  0  0  0  0  0  0  0
  -10.2957  -11.1745   11.2999 H   0  0  0  0  0  0  0  0  0  0  0  0
  -14.7138  -13.3825   12.0607 H   0  0  0  0  0  0  0  0  0  0  0  0
  -16.6421  -15.3206   10.7354 H   0  0  0  0  0  0  0  0  0  0  0  0
  -15.3358  -15.8118   11.9076 H   0  0  0  0  0  0  0  0  0  0  0  0
  -15.7541  -16.8735   10.5123 H   0  0  0  0  0  0  0  0  0  0  0  0
  -13.9680  -16.2138    8.6969 H   0  0  0  0  0  0  0  0  0  0  0  0
  -12.6647  -17.2970    8.0993 H   0  0  0  0  0  0  0  0  0  0  0  0
  -13.1795  -15.8324    7.1281 H   0  0  0  0  0  0  0  0  0  0  0  0
  4  5  1  0
  5  6  1  0
  6  7  1  0
  6  8  2  0
  8  9  1  0
  9 10  1  0
  8 11  1  0
 11 12  2  0
 12 13  1  0
 13 14  1  0
 14 15  1  0
 15 16  1  0
  1 16  1  0
 15 17  1  0
  7 18  2  0
 12 18  1  0
 17 18  1  0
 17 19  1  0
 19 20  1  0
  2 20  2  0
  1 20  1  0
  2 21  1  0
 21 22  2  0
 22 23  1  0
 23 24  1  0
  1 25  2  0
 22 25  1  0
  3 25  1  0
  3 26  1  0
  2 27  1  0
  4 28  1  6
  4 29  1  0
  4 30  1  0
  7 31  1  0
 10 32  1  6
 10 33  1  0
 10 34  1  0
 11 35  1  0
 13 36  1  6
 13 37  1  0
 14 38  1  6
 14 39  1  0
 16 40  1  6
 16 41  1  0
 17 42  1  1
 19 43  1  1
 19 44  1  0
 21 45  1  0
 24 46  1  1
 24 47  1  0
 24 48  1  0
 26 49  1  1
 26 50  1  0
 26 51  1  0
M  END
