
     RDKit          3D

  8  7  0  0  0  0  0  0  0  0999 V2000
  -30.3066   29.4186   13.2132 N   0  0  0  0  0  0  0  0  0  0  0  0
  -31.3330   30.0863   13.7924 C   0  0  0  0  0  0  0  0  0  0  0  0
  -32.1905   29.5386   14.4610 O   0  0  0  0  0  0  0  0  0  0  0  0
  -31.2576   31.3897   13.5180 O   0  0  0  0  0  0  0  0  0  0  0  0
  -30.4141   32.3765   14.4364 P   0  0  0  0  0  5  0  0  0  0  0  0
  -29.9801   31.9132   15.7847 O   0  0  0  0  0  0  0  0  0  0  0  0
  -29.0975   32.6540   13.5589 O   0  0  0  0  0  0  0  0  0  0  0  0
  -31.0649   33.8298   14.3514 O   0  0  0  0  0  0  0  0  0  0  0  0
  1  2  1  0
  2  3  2  0
  2  4  1  0
  4  5  1  0
  5  6  2  0
  5  7  1  0
  5  8  1  0
M  END
