1S19_MC9_A_500
     RDKit          3D

 30 33  0  0  0  0  0  0  0  0999 V2000
    1.5731   29.1724   53.2818 O   0  0  0  0  0  0  0  0  0  0  0  0
    5.6399   29.9974   54.3085 O   0  0  0  0  0  0  0  0  0  0  0  0
    4.9780   28.8614   54.7075 C   0  0  1  0  0  0  0  0  0  0  0  0
    3.4635   28.9920   54.6222 C   0  0  0  0  0  0  0  0  0  0  0  0
    2.9684   29.0164   53.2124 C   0  0  1  0  0  0  0  0  0  0  0  0
    3.3065   27.7521   52.4566 C   0  0  0  0  0  0  0  0  0  0  0  0
    4.8109   27.6065   52.5298 C   0  0  0  0  0  0  0  0  0  0  0  0
    5.5050   27.3767   51.4552 C   0  0  0  0  0  0  0  0  0  0  0  0
    5.0290   27.0125   50.1379 C   0  0  0  0  0  0  0  0  0  0  0  0
    5.8463   26.9472   49.0850 C   0  0  0  0  0  0  0  0  0  0  0  0
    7.0695   26.0996   49.1017 C   0  0  0  0  0  0  0  0  0  0  0  0
    5.4253   27.7119   53.8475 C   0  0  0  0  0  0  0  0  0  0  0  0
    8.0045   26.5718   48.0466 C   0  0  0  0  0  0  0  0  0  0  0  0
    7.4608   26.7597   46.6797 C   0  0  0  0  0  0  0  0  0  0  0  0
    5.9562   26.7992   46.6819 C   0  0  1  0  0  0  0  0  0  0  0  0
    5.5755   27.7102   47.8400 C   0  0  1  0  0  0  0  0  0  0  0  0
    4.1422   27.9746   47.5973 C   0  0  0  0  0  0  0  0  0  0  0  0
    3.9848   27.9175   46.1020 C   0  0  0  0  0  0  0  0  0  0  0  0
    5.3618   27.5273   45.5452 C   0  0  2  0  0  0  0  0  0  0  0  0
    5.3307   25.4353   46.8358 C   0  0  0  0  0  0  0  0  0  0  0  0
    6.3214   26.8327   54.2383 C   0  0  0  0  0  0  0  0  0  0  0  0
    5.2533   26.8708   44.2280 C   0  0  1  0  0  0  0  0  0  0  0  0
    3.8789   26.3400   43.9476 C   0  0  0  0  0  0  0  0  0  0  0  0
    2.2855   24.5944   43.4185 C   0  0  2  0  0  0  0  0  0  0  0  0
    5.5396   27.8523   43.1250 C   0  0  0  0  0  0  0  0  0  0  0  0
    1.5037   24.2644   44.6844 C   0  0  2  0  0  0  0  0  0  0  0  0
    1.8553   22.9490   45.3310 C   0  0  0  0  0  0  0  0  0  0  0  0
    0.5147   23.1775   44.6792 C   0  0  0  0  0  0  0  0  0  0  0  0
    2.2018   23.4723   42.5991 O   0  0  0  0  0  0  0  0  0  0  0  0
    3.6577   25.0506   43.6832 C   0  0  0  0  0  0  0  0  0  0  0  0
  3  2  1  6
  3  4  1  0
  5  1  1  1
  4  5  1  0
  5  6  1  0
  6  7  1  0
  7  8  2  0
  8  9  1  0
  9 10  2  0
 10 11  1  0
  3 12  1  0
  7 12  1  0
 11 13  1  0
 13 14  1  0
 14 15  1  0
 10 16  1  0
 15 16  1  0
 16 17  1  6
 17 18  1  0
 15 19  1  0
 19 18  1  1
 15 20  1  1
 12 21  2  0
 19 22  1  0
 22 23  1  0
 22 25  1  6
 24 26  1  0
 26 27  1  1
 26 28  1  0
 27 28  1  0
 24 29  1  6
 23 30  2  0
 24 30  1  0
M  END
$$$$
