1S19_MC9_A_500
     RDKit          3D

 30 33  0  0  0  0  0  0  0  0999 V2000
   24.1380    2.7056   47.9845 O   0  0  0  0  0  0  0  0  0  0  0  0
   27.2205    3.7362   45.2080 O   0  0  0  0  0  0  0  0  0  0  0  0
   26.2225    4.6036   45.5814 C   0  0  1  0  0  0  0  0  0  0  0  0
   25.0203    3.9008   46.1968 C   0  0  0  0  0  0  0  0  0  0  0  0
   25.3116    3.3489   47.5547 C   0  0  1  0  0  0  0  0  0  0  0  0
   25.7016    4.4212   48.5456 C   0  0  0  0  0  0  0  0  0  0  0  0
   26.8982    5.1307   47.9501 C   0  0  0  0  0  0  0  0  0  0  0  0
   27.9675    5.3320   48.6610 C   0  0  0  0  0  0  0  0  0  0  0  0
   28.1260    5.2294   50.0959 C   0  0  0  0  0  0  0  0  0  0  0  0
   29.2755    5.5317   50.7026 C   0  0  0  0  0  0  0  0  0  0  0  0
   30.1843    6.5818   50.1674 C   0  0  0  0  0  0  0  0  0  0  0  0
   26.7807    5.5885   46.5711 C   0  0  0  0  0  0  0  0  0  0  0  0
   31.5467    6.3790   50.7270 C   0  0  0  0  0  0  0  0  0  0  0  0
   31.6696    6.2145   52.1957 C   0  0  0  0  0  0  0  0  0  0  0  0
   30.3414    5.9037   52.8320 C   0  0  1  0  0  0  0  0  0  0  0  0
   29.7050    4.8425   51.9460 C   0  0  1  0  0  0  0  0  0  0  0  0
   28.5868    4.3455   52.7741 C   0  0  0  0  0  0  0  0  0  0  0  0
   29.0568    4.5018   54.1950 C   0  0  0  0  0  0  0  0  0  0  0  0
   30.4318    5.1809   54.1145 C   0  0  2  0  0  0  0  0  0  0  0  0
   29.4494    7.1138   52.9559 C   0  0  0  0  0  0  0  0  0  0  0  0
   27.1509    6.8053   46.2381 C   0  0  0  0  0  0  0  0  0  0  0  0
   30.7511    5.9181   55.3524 C   0  0  1  0  0  0  0  0  0  0  0  0
   31.0378    5.0162   56.5159 C   0  0  0  0  0  0  0  0  0  0  0  0
   30.4569    3.8967   58.5835 C   0  0  2  0  0  0  0  0  0  0  0  0
   31.9935    6.7454   55.1673 C   0  0  0  0  0  0  0  0  0  0  0  0
   29.2626    3.3022   59.3202 C   0  0  2  0  0  0  0  0  0  0  0  0
   29.3518    3.3422   60.8244 C   0  0  0  0  0  0  0  0  0  0  0  0
   29.4055    2.0419   60.0624 C   0  0  0  0  0  0  0  0  0  0  0  0
   31.1609    4.6516   59.5174 O   0  0  0  0  0  0  0  0  0  0  0  0
   30.0838    4.6324   57.3667 C   0  0  0  0  0  0  0  0  0  0  0  0
  3  2  1  1
  3  4  1  0
  5  1  1  1
  4  5  1  0
  5  6  1  0
  6  7  1  0
  7  8  2  0
  8  9  1  0
  9 10  2  0
 10 11  1  0
  3 12  1  0
  7 12  1  0
 11 13  1  0
 13 14  1  0
 14 15  1  0
 10 16  1  0
 15 16  1  0
 16 17  1  1
 17 18  1  0
 15 19  1  0
 19 18  1  1
 15 20  1  1
 12 21  2  0
 19 22  1  0
 22 23  1  0
 22 25  1  6
 24 26  1  0
 26 27  1  1
 26 28  1  0
 27 28  1  0
 24 29  1  1
 23 30  2  0
 24 30  1  0
M  END
$$$$
