1S19_MC9_A_500
     RDKit          3D

 30 33  0  0  0  0  0  0  0  0999 V2000
    0.5762    4.0815   48.8380 O   0  0  0  0  0  0  0  0  0  0  0  0
   -2.0037    6.5751   51.1615 O   0  0  0  0  0  0  0  0  0  0  0  0
   -2.4105    5.3915   50.5946 C   0  0  1  0  0  0  0  0  0  0  0  0
   -1.4961    4.9224   49.4713 C   0  0  0  0  0  0  0  0  0  0  0  0
   -0.1698    4.4489   49.9713 C   0  0  1  0  0  0  0  0  0  0  0  0
   -0.2905    3.2709   50.9103 C   0  0  0  0  0  0  0  0  0  0  0  0
   -1.1966    3.7200   52.0360 C   0  0  0  0  0  0  0  0  0  0  0  0
   -0.8503    3.5371   53.2753 C   0  0  0  0  0  0  0  0  0  0  0  0
    0.3540    2.9221   53.7911 C   0  0  0  0  0  0  0  0  0  0  0  0
    0.4959    2.6230   55.0839 C   0  0  0  0  0  0  0  0  0  0  0  0
    1.2595    1.4242   55.5252 C   0  0  0  0  0  0  0  0  0  0  0  0
   -2.4646    4.3349   51.6631 C   0  0  0  0  0  0  0  0  0  0  0  0
    0.8620    1.0773   56.9152 C   0  0  0  0  0  0  0  0  0  0  0  0
    0.8737    2.1632   57.9252 C   0  0  0  0  0  0  0  0  0  0  0  0
    0.9258    3.5213   57.2786 C   0  0  1  0  0  0  0  0  0  0  0  0
   -0.0935    3.4730   56.1495 C   0  0  1  0  0  0  0  0  0  0  0  0
   -0.2390    4.8942   55.7725 C   0  0  0  0  0  0  0  0  0  0  0  0
    0.0074    5.6602   57.0439 C   0  0  0  0  0  0  0  0  0  0  0  0
    0.3775    4.6134   58.1047 C   0  0  2  0  0  0  0  0  0  0  0  0
    2.2966    3.8744   56.7578 C   0  0  0  0  0  0  0  0  0  0  0  0
   -3.5830    3.9650   52.2472 C   0  0  0  0  0  0  0  0  0  0  0  0
    1.1935    5.1964   59.1873 C   0  0  1  0  0  0  0  0  0  0  0  0
    0.4977    6.3091   59.9133 C   0  0  0  0  0  0  0  0  0  0  0  0
    0.4127    8.1720   61.4588 C   0  0  2  0  0  0  0  0  0  0  0  0
    1.4982    4.1601   60.2339 C   0  0  0  0  0  0  0  0  0  0  0  0
    1.2995    9.2201   62.1202 C   0  0  2  0  0  0  0  0  0  0  0  0
    1.2284    9.2633   63.6253 C   0  0  0  0  0  0  0  0  0  0  0  0
    0.6975   10.3899   62.7749 C   0  0  0  0  0  0  0  0  0  0  0  0
   -0.3580    7.6103   62.4727 O   0  0  0  0  0  0  0  0  0  0  0  0
    1.1636    7.1954   60.6566 C   0  0  0  0  0  0  0  0  0  0  0  0
  3  2  1  1
  3  4  1  0
  5  1  1  6
  4  5  1  0
  5  6  1  0
  6  7  1  0
  7  8  2  0
  8  9  1  0
  9 10  2  0
 10 11  1  0
  3 12  1  0
  7 12  1  0
 11 13  1  0
 13 14  1  0
 14 15  1  0
 10 16  1  0
 15 16  1  0
 16 17  1  6
 17 18  1  0
 15 19  1  0
 19 18  1  6
 15 20  1  6
 12 21  2  0
 19 22  1  0
 22 23  1  0
 22 25  1  1
 24 26  1  0
 26 27  1  1
 26 28  1  0
 27 28  1  0
 24 29  1  1
 23 30  2  0
 24 30  1  0
M  END
$$$$
