1S19_MC9_A_500
     RDKit          3D

 30 33  0  0  0  0  0  0  0  0999 V2000
   -5.2490   16.1884   48.2997 O   0  0  0  0  0  0  0  0  0  0  0  0
   -4.5312   18.9137   45.0857 O   0  0  0  0  0  0  0  0  0  0  0  0
   -5.7690   18.7262   45.6518 C   0  0  1  0  0  0  0  0  0  0  0  0
   -5.8765   17.4244   46.4340 C   0  0  0  0  0  0  0  0  0  0  0  0
   -5.0879   17.4509   47.7031 C   0  0  1  0  0  0  0  0  0  0  0  0
   -5.5531   18.5305   48.6528 C   0  0  0  0  0  0  0  0  0  0  0  0
   -5.4516   19.8344   47.8916 C   0  0  0  0  0  0  0  0  0  0  0  0
   -4.8590   20.8632   48.4203 C   0  0  0  0  0  0  0  0  0  0  0  0
   -4.2947   20.9925   49.7467 C   0  0  0  0  0  0  0  0  0  0  0  0
   -3.8998   22.1705   50.2342 C   0  0  0  0  0  0  0  0  0  0  0  0
   -4.0936   22.5233   51.6669 C   0  0  0  0  0  0  0  0  0  0  0  0
   -6.0630   19.8809   46.5690 C   0  0  0  0  0  0  0  0  0  0  0  0
   -4.0175   24.0001   51.8201 C   0  0  0  0  0  0  0  0  0  0  0  0
   -2.8558   24.6954   51.2148 C   0  0  0  0  0  0  0  0  0  0  0  0
   -2.1431   23.8204   50.2189 C   0  0  1  0  0  0  0  0  0  0  0  0
   -3.2406   23.1874   49.3758 C   0  0  1  0  0  0  0  0  0  0  0  0
   -2.4956   22.6179   48.2340 C   0  0  0  0  0  0  0  0  0  0  0  0
   -1.3095   23.5259   48.0528 C   0  0  0  0  0  0  0  0  0  0  0  0
   -1.3874   24.5569   49.1883 C   0  0  2  0  0  0  0  0  0  0  0  0
   -1.2823   22.7665   50.8695 C   0  0  0  0  0  0  0  0  0  0  0  0
   -6.8283   20.8923   46.2229 C   0  0  0  0  0  0  0  0  0  0  0  0
   -0.0608   25.1175   49.5101 C   0  0  1  0  0  0  0  0  0  0  0  0
    0.5435   25.8867   48.3733 C   0  0  0  0  0  0  0  0  0  0  0  0
    2.3665   26.5173   46.9087 C   0  0  2  0  0  0  0  0  0  0  0  0
   -0.1639   26.0946   50.6489 C   0  0  0  0  0  0  0  0  0  0  0  0
    3.7883   26.1265   46.5234 C   0  0  2  0  0  0  0  0  0  0  0  0
    4.7038   27.2783   46.1959 C   0  0  0  0  0  0  0  0  0  0  0  0
    4.2526   26.3005   45.1401 C   0  0  0  0  0  0  0  0  0  0  0  0
    2.4134   27.8568   47.2843 O   0  0  0  0  0  0  0  0  0  0  0  0
    1.7695   25.6265   47.9142 C   0  0  0  0  0  0  0  0  0  0  0  0
  3  2  1  1
  3  4  1  0
  5  1  1  1
  4  5  1  0
  5  6  1  0
  6  7  1  0
  7  8  2  0
  8  9  1  0
  9 10  2  0
 10 11  1  0
  3 12  1  0
  7 12  1  0
 11 13  1  0
 13 14  1  0
 14 15  1  0
 10 16  1  0
 15 16  1  0
 16 17  1  6
 17 18  1  0
 15 19  1  0
 19 18  1  6
 15 20  1  1
 12 21  2  0
 19 22  1  0
 22 23  1  0
 22 25  1  1
 24 26  1  0
 26 27  1  1
 26 28  1  0
 27 28  1  0
 24 29  1  1
 23 30  2  0
 24 30  1  0
M  END
$$$$
