1S19_MC9_A_500
     RDKit          3D

 30 33  0  0  0  0  0  0  0  0999 V2000
   -6.6327   23.7911   37.5723 O   0  0  0  0  0  0  0  0  0  0  0  0
  -10.4499   24.2526   35.7045 O   0  0  0  0  0  0  0  0  0  0  0  0
   -9.2722   24.1726   35.0013 C   0  0  1  0  0  0  0  0  0  0  0  0
   -8.0463   24.4662   35.8551 C   0  0  0  0  0  0  0  0  0  0  0  0
   -7.7570   23.3773   36.8369 C   0  0  1  0  0  0  0  0  0  0  0  0
   -7.4732   22.0526   36.1673 C   0  0  0  0  0  0  0  0  0  0  0  0
   -8.6840   21.7433   35.3139 C   0  0  0  0  0  0  0  0  0  0  0  0
   -9.2570   20.5786   35.3783 C   0  0  0  0  0  0  0  0  0  0  0  0
   -8.6435   19.2850   35.5894 C   0  0  0  0  0  0  0  0  0  0  0  0
   -9.3685   18.1709   35.7091 C   0  0  0  0  0  0  0  0  0  0  0  0
  -10.1490   17.6247   34.5657 C   0  0  0  0  0  0  0  0  0  0  0  0
   -9.1494   22.7931   34.4158 C   0  0  0  0  0  0  0  0  0  0  0  0
  -11.1973   16.7071   35.0848 C   0  0  0  0  0  0  0  0  0  0  0  0
  -10.7776   15.6548   36.0419 C   0  0  0  0  0  0  0  0  0  0  0  0
   -9.4152   15.9381   36.6153 C   0  0  1  0  0  0  0  0  0  0  0  0
   -9.4292   17.4141   36.9855 C   0  0  1  0  0  0  0  0  0  0  0  0
   -8.2227   17.5571   37.8265 C   0  0  0  0  0  0  0  0  0  0  0  0
   -8.0590   16.2218   38.5004 C   0  0  0  0  0  0  0  0  0  0  0  0
   -9.1652   15.3212   37.9315 C   0  0  2  0  0  0  0  0  0  0  0  0
   -8.2948   15.6303   35.6533 C   0  0  0  0  0  0  0  0  0  0  0  0
   -9.4391   22.5195   33.1629 C   0  0  0  0  0  0  0  0  0  0  0  0
   -8.8055   13.8925   38.0169 C   0  0  1  0  0  0  0  0  0  0  0  0
   -8.4102   13.4679   39.4000 C   0  0  0  0  0  0  0  0  0  0  0  0
   -6.8152   12.7662   41.0821 C   0  0  2  0  0  0  0  0  0  0  0  0
   -9.9821   13.0302   37.6507 C   0  0  0  0  0  0  0  0  0  0  0  0
   -5.8741   13.6473   41.8949 C   0  0  2  0  0  0  0  0  0  0  0  0
   -4.7679   14.3018   41.1074 C   0  0  0  0  0  0  0  0  0  0  0  0
   -4.4852   13.2270   42.1268 C   0  0  0  0  0  0  0  0  0  0  0  0
   -6.2414   11.4984   41.0519 O   0  0  0  0  0  0  0  0  0  0  0  0
   -7.1330   13.3193   39.7576 C   0  0  0  0  0  0  0  0  0  0  0  0
  3  2  1  1
  3  4  1  0
  5  1  1  6
  4  5  1  0
  5  6  1  0
  6  7  1  0
  7  8  2  0
  8  9  1  0
  9 10  2  0
 10 11  1  0
  3 12  1  0
  7 12  1  0
 11 13  1  0
 13 14  1  0
 14 15  1  0
 10 16  1  0
 15 16  1  0
 16 17  1  1
 17 18  1  0
 15 19  1  0
 19 18  1  6
 15 20  1  6
 12 21  2  0
 19 22  1  0
 22 23  1  0
 22 25  1  1
 24 26  1  0
 26 27  1  6
 26 28  1  0
 27 28  1  0
 24 29  1  6
 23 30  2  0
 24 30  1  0
M  END
$$$$
