1S19_MC9_A_500
     RDKit          3D

 30 33  0  0  0  0  0  0  0  0999 V2000
    5.6684    6.5953   42.9765 O   0  0  0  0  0  0  0  0  0  0  0  0
    3.5099    3.2188   44.4640 O   0  0  0  0  0  0  0  0  0  0  0  0
    4.1845    4.0985   45.2757 C   0  0  1  0  0  0  0  0  0  0  0  0
    5.2235    4.9232   44.5285 C   0  0  0  0  0  0  0  0  0  0  0  0
    4.6063    5.9365   43.6199 C   0  0  1  0  0  0  0  0  0  0  0  0
    3.7546    6.9397   44.3627 C   0  0  0  0  0  0  0  0  0  0  0  0
    2.7133    6.1366   45.1115 C   0  0  0  0  0  0  0  0  0  0  0  0
    1.4555    6.4556   45.0388 C   0  0  0  0  0  0  0  0  0  0  0  0
    0.8473    7.7586   45.2023 C   0  0  0  0  0  0  0  0  0  0  0  0
   -0.3022    8.0810   44.6058 C   0  0  0  0  0  0  0  0  0  0  0  0
   -1.5331    7.2671   44.7986 C   0  0  0  0  0  0  0  0  0  0  0  0
    3.1899    5.0226   45.9221 C   0  0  0  0  0  0  0  0  0  0  0  0
   -2.4834    7.5502   43.6908 C   0  0  0  0  0  0  0  0  0  0  0  0
   -2.7821    8.9706   43.3869 C   0  0  0  0  0  0  0  0  0  0  0  0
   -1.7734    9.8957   44.0132 C   0  0  1  0  0  0  0  0  0  0  0  0
   -0.4158    9.2713   43.7250 C   0  0  1  0  0  0  0  0  0  0  0  0
    0.5274   10.3583   44.0595 C   0  0  0  0  0  0  0  0  0  0  0  0
   -0.2218   11.6283   43.7597 C   0  0  0  0  0  0  0  0  0  0  0  0
   -1.6331   11.1975   43.3342 C   0  0  2  0  0  0  0  0  0  0  0  0
   -1.9826   10.0798   45.4956 C   0  0  0  0  0  0  0  0  0  0  0  0
    2.7559    4.8588   47.1523 C   0  0  0  0  0  0  0  0  0  0  0  0
   -2.6260   12.2625   43.5749 C   0  0  1  0  0  0  0  0  0  0  0  0
   -2.1074   13.6327   43.2539 C   0  0  0  0  0  0  0  0  0  0  0  0
   -1.7961   15.9964   43.6803 C   0  0  2  0  0  0  0  0  0  0  0  0
   -3.8294   12.0698   42.6936 C   0  0  0  0  0  0  0  0  0  0  0  0
   -0.2973   16.0363   43.4071 C   0  0  2  0  0  0  0  0  0  0  0  0
    0.5250   15.0489   44.1949 C   0  0  0  0  0  0  0  0  0  0  0  0
    0.6276   16.5342   44.4348 C   0  0  0  0  0  0  0  0  0  0  0  0
   -2.0556   17.0034   44.6056 O   0  0  0  0  0  0  0  0  0  0  0  0
   -2.2805   14.6670   44.0794 C   0  0  0  0  0  0  0  0  0  0  0  0
  3  2  1  6
  3  4  1  0
  5  1  1  1
  4  5  1  0
  5  6  1  0
  6  7  1  0
  7  8  2  0
  8  9  1  0
  9 10  2  0
 10 11  1  0
  3 12  1  0
  7 12  1  0
 11 13  1  0
 13 14  1  0
 14 15  1  0
 10 16  1  0
 15 16  1  0
 16 17  1  1
 17 18  1  0
 15 19  1  0
 19 18  1  1
 15 20  1  1
 12 21  2  0
 19 22  1  0
 22 23  1  0
 22 25  1  6
 24 26  1  0
 26 27  1  1
 26 28  1  0
 27 28  1  0
 24 29  1  1
 23 30  2  0
 24 30  1  0
M  END
$$$$
