1S19_MC9_A_500
     RDKit          3D

 30 33  0  0  0  0  0  0  0  0999 V2000
    8.8801   26.6439   63.0078 O   0  0  0  0  0  0  0  0  0  0  0  0
    9.3739   22.4300   63.5290 O   0  0  0  0  0  0  0  0  0  0  0  0
    9.1437   23.2958   64.5707 C   0  0  1  0  0  0  0  0  0  0  0  0
    9.4511   24.7453   64.2210 C   0  0  0  0  0  0  0  0  0  0  0  0
    8.4599   25.3276   63.2661 C   0  0  1  0  0  0  0  0  0  0  0  0
    7.0548   25.3371   63.8222 C   0  0  0  0  0  0  0  0  0  0  0  0
    6.7310   23.9016   64.1748 C   0  0  0  0  0  0  0  0  0  0  0  0
    5.6186   23.3591   63.7780 C   0  0  0  0  0  0  0  0  0  0  0  0
    4.4724   23.9999   63.1696 C   0  0  0  0  0  0  0  0  0  0  0  0
    3.3358   23.3404   62.9367 C   0  0  0  0  0  0  0  0  0  0  0  0
    2.7425   22.4305   63.9541 C   0  0  0  0  0  0  0  0  0  0  0  0
    7.7035   23.1814   64.9876 C   0  0  0  0  0  0  0  0  0  0  0  0
    1.7979   21.4988   63.2834 C   0  0  0  0  0  0  0  0  0  0  0  0
    0.7780   22.0853   62.3805 C   0  0  0  0  0  0  0  0  0  0  0  0
    1.1190   23.5023   62.0049 C   0  0  1  0  0  0  0  0  0  0  0  0
    2.5999   23.4845   61.6548 C   0  0  1  0  0  0  0  0  0  0  0  0
    2.7999   24.7893   60.9909 C   0  0  0  0  0  0  0  0  0  0  0  0
    1.4833   25.0940   60.3294 C   0  0  0  0  0  0  0  0  0  0  0  0
    0.5345   23.9542   60.7283 C   0  0  2  0  0  0  0  0  0  0  0  0
    0.8339   24.4900   63.1088 C   0  0  0  0  0  0  0  0  0  0  0  0
    7.3135   22.4764   66.0265 C   0  0  0  0  0  0  0  0  0  0  0  0
   -0.8789   24.3753   60.6756 C   0  0  1  0  0  0  0  0  0  0  0  0
   -1.2168   25.1446   59.4332 C   0  0  0  0  0  0  0  0  0  0  0  0
   -2.6093   26.6063   58.0953 C   0  0  2  0  0  0  0  0  0  0  0  0
   -1.7859   23.1756   60.6666 C   0  0  0  0  0  0  0  0  0  0  0  0
   -3.6169   27.7411   58.2355 C   0  0  2  0  0  0  0  0  0  0  0  0
   -4.8355   27.6294   57.3555 C   0  0  0  0  0  0  0  0  0  0  0  0
   -3.8003   28.7050   57.1415 C   0  0  0  0  0  0  0  0  0  0  0  0
   -3.1313   25.7297   57.1485 O   0  0  0  0  0  0  0  0  0  0  0  0
   -2.2591   25.9763   59.3765 C   0  0  0  0  0  0  0  0  0  0  0  0
  3  2  1  6
  3  4  1  0
  5  1  1  1
  4  5  1  0
  5  6  1  0
  6  7  1  0
  7  8  2  0
  8  9  1  0
  9 10  2  0
 10 11  1  0
  3 12  1  0
  7 12  1  0
 11 13  1  0
 13 14  1  0
 14 15  1  0
 10 16  1  0
 15 16  1  0
 16 17  1  1
 17 18  1  0
 15 19  1  0
 19 18  1  1
 15 20  1  1
 12 21  2  0
 19 22  1  0
 22 23  1  0
 22 25  1  6
 24 26  1  0
 26 27  1  6
 26 28  1  0
 27 28  1  0
 24 29  1  6
 23 30  2  0
 24 30  1  0
M  END
$$$$
