1XM6_5RM_A_1003
     RDKit          3D

 19 20  0  0  0  0  0  0  0  0999 V2000
   53.8986   18.3662  -12.6034 O   0  0  0  0  0  0  0  0  0  0  0  0
   54.5264   17.5599  -11.8382 C   0  0  0  0  0  0  0  0  0  0  0  0
   55.6348   17.8330  -11.0411 O   0  0  0  0  0  0  0  0  0  0  0  0
   54.1850   16.1741  -11.6588 N   0  0  0  0  0  0  0  0  0  0  0  0
   55.1592   15.6397  -10.7354 C   0  0  0  0  0  0  0  0  0  0  0  0
   56.3187   16.5782  -10.8953 C   0  0  2  0  0  0  0  0  0  0  0  0
   57.2263   16.6174   -9.7117 C   0  0  0  0  0  0  0  0  0  0  0  0
   57.1053   16.3988  -12.1182 C   0  0  0  0  0  0  0  0  0  0  0  0
   58.1459   17.2681  -12.3667 C   0  0  0  0  0  0  0  0  0  0  0  0
   58.8674   17.0743  -13.5242 C   0  0  0  0  0  0  0  0  0  0  0  0
   58.5584   16.0538  -14.3940 C   0  0  0  0  0  0  0  0  0  0  0  0
   59.3250   15.9137  -15.5426 O   0  0  0  0  0  0  0  0  0  0  0  0
   60.5280   16.6424  -15.6750 C   0  0  0  0  0  0  0  0  0  0  0  0
   57.5023   15.1640  -14.1518 C   0  0  0  0  0  0  0  0  0  0  0  0
   56.7988   15.3757  -12.9938 C   0  0  0  0  0  0  0  0  0  0  0  0
   57.2896   14.1982  -15.0806 O   0  0  0  0  0  0  0  0  0  0  0  0
   56.5036   13.0804  -15.1345 C   0  0  0  0  0  0  0  0  0  0  0  0
   56.6098   12.2895  -16.4126 C   0  0  0  0  0  0  0  0  0  0  0  0
   58.0392   11.7926  -16.6308 C   0  0  0  0  0  0  0  0  0  0  0  0
  1  2  2  0
  2  3  1  0
  2  4  1  0
  4  5  1  0
  3  6  1  0
  5  6  1  0
  6  7  1  1
  6  8  1  0
  8  9  2  0
  9 10  1  0
 10 11  2  0
 11 12  1  0
 12 13  1  0
 11 14  1  0
  8 15  1  0
 14 15  2  0
 14 16  1  0
 16 17  1  0
 17 18  1  0
 18 19  1  0
M  END
$$$$
