1XM6_5RM_A_1003
     RDKit          3D

 19 20  0  0  0  0  0  0  0  0999 V2000
   58.0690   19.9333   -7.1498 O   0  0  0  0  0  0  0  0  0  0  0  0
   58.6441   18.8149   -6.9307 C   0  0  0  0  0  0  0  0  0  0  0  0
   59.9958   18.5871   -6.6868 O   0  0  0  0  0  0  0  0  0  0  0  0
   57.9697   17.5448   -6.8961 N   0  0  0  0  0  0  0  0  0  0  0  0
   58.9928   16.5568   -6.6425 C   0  0  0  0  0  0  0  0  0  0  0  0
   60.2402   17.2396   -7.1206 C   0  0  2  0  0  0  0  0  0  0  0  0
   61.4890   16.7130   -6.4965 C   0  0  0  0  0  0  0  0  0  0  0  0
   60.4010   17.3030   -8.5754 C   0  0  0  0  0  0  0  0  0  0  0  0
   61.4789   17.9908   -9.0906 C   0  0  0  0  0  0  0  0  0  0  0  0
   61.6036   18.0330  -10.4620 C   0  0  0  0  0  0  0  0  0  0  0  0
   60.6873   17.4128  -11.2801 C   0  0  0  0  0  0  0  0  0  0  0  0
   60.8712   17.4935  -12.6536 O   0  0  0  0  0  0  0  0  0  0  0  0
   62.1286   17.8778  -13.1705 C   0  0  0  0  0  0  0  0  0  0  0  0
   59.5873   16.7108  -10.7674 C   0  0  0  0  0  0  0  0  0  0  0  0
   59.4839   16.6818   -9.4002 C   0  0  0  0  0  0  0  0  0  0  0  0
   58.7491   16.1416  -11.6697 O   0  0  0  0  0  0  0  0  0  0  0  0
   57.6520   15.3304  -11.5761 C   0  0  0  0  0  0  0  0  0  0  0  0
   57.0092   14.9761  -12.8920 C   0  0  0  0  0  0  0  0  0  0  0  0
   55.7296   14.1678  -12.6750 C   0  0  0  0  0  0  0  0  0  0  0  0
  1  2  2  0
  2  3  1  0
  2  4  1  0
  4  5  1  0
  3  6  1  0
  5  6  1  0
  6  7  1  1
  6  8  1  0
  8  9  2  0
  9 10  1  0
 10 11  2  0
 11 12  1  0
 12 13  1  0
 11 14  1  0
  8 15  1  0
 14 15  2  0
 14 16  1  0
 16 17  1  0
 17 18  1  0
 18 19  1  0
M  END
$$$$
