1XM6_5RM_A_1003
     RDKit          3D

 19 20  0  0  0  0  0  0  0  0999 V2000
   92.0534   -2.0975  -22.7090 O   0  0  0  0  0  0  0  0  0  0  0  0
   92.0093   -1.2856  -21.7249 C   0  0  0  0  0  0  0  0  0  0  0  0
   92.3025    0.0755  -21.7315 O   0  0  0  0  0  0  0  0  0  0  0  0
   91.6344   -1.6493  -20.3846 N   0  0  0  0  0  0  0  0  0  0  0  0
   91.7428   -0.4419  -19.5986 C   0  0  0  0  0  0  0  0  0  0  0  0
   92.7135    0.3840  -20.3901 C   0  0  2  0  0  0  0  0  0  0  0  0
   92.5990    1.8501  -20.1375 C   0  0  0  0  0  0  0  0  0  0  0  0
   94.1154   -0.0291  -20.2885 C   0  0  0  0  0  0  0  0  0  0  0  0
   95.0122    0.4450  -21.2220 C   0  0  0  0  0  0  0  0  0  0  0  0
   96.3232    0.0393  -21.1007 C   0  0  0  0  0  0  0  0  0  0  0  0
   96.7169   -0.8048  -20.0879 C   0  0  0  0  0  0  0  0  0  0  0  0
   98.0530   -1.1753  -20.0224 O   0  0  0  0  0  0  0  0  0  0  0  0
   98.9916   -0.5668  -20.8852 C   0  0  0  0  0  0  0  0  0  0  0  0
   95.8138   -1.2935  -19.1332 C   0  0  0  0  0  0  0  0  0  0  0  0
   94.5150   -0.8761  -19.2735 C   0  0  0  0  0  0  0  0  0  0  0  0
   96.3156   -2.1207  -18.1821 O   0  0  0  0  0  0  0  0  0  0  0  0
   95.8009   -2.7124  -17.0617 C   0  0  0  0  0  0  0  0  0  0  0  0
   96.7509   -3.6262  -16.3318 C   0  0  0  0  0  0  0  0  0  0  0  0
   96.0256   -4.4041  -15.2334 C   0  0  0  0  0  0  0  0  0  0  0  0
  1  2  2  0
  2  3  1  0
  2  4  1  0
  4  5  1  0
  3  6  1  0
  5  6  1  0
  6  7  1  1
  6  8  1  0
  8  9  2  0
  9 10  1  0
 10 11  2  0
 11 12  1  0
 12 13  1  0
 11 14  1  0
  8 15  1  0
 14 15  2  0
 14 16  1  0
 16 17  1  0
 17 18  1  0
 18 19  1  0
M  END
$$$$
