1XM6_5RM_A_1003
     RDKit          3D

 19 20  0  0  0  0  0  0  0  0999 V2000
   70.4070   20.1563   -0.8276 O   0  0  0  0  0  0  0  0  0  0  0  0
   70.9433   19.0658   -1.2184 C   0  0  0  0  0  0  0  0  0  0  0  0
   70.8177   17.8032   -0.6453 O   0  0  0  0  0  0  0  0  0  0  0  0
   71.8050   18.9462   -2.3640 N   0  0  0  0  0  0  0  0  0  0  0  0
   72.1980   17.5573   -2.4242 C   0  0  0  0  0  0  0  0  0  0  0  0
   72.0160   17.0986   -1.0074 C   0  0  2  0  0  0  0  0  0  0  0  0
   71.8114   15.6265   -0.8751 C   0  0  0  0  0  0  0  0  0  0  0  0
   73.0489   17.5425   -0.0680 C   0  0  0  0  0  0  0  0  0  0  0  0
   72.8860   17.2630    1.2720 C   0  0  0  0  0  0  0  0  0  0  0  0
   73.8736   17.6929    2.1310 C   0  0  0  0  0  0  0  0  0  0  0  0
   74.9757   18.3731    1.6661 C   0  0  0  0  0  0  0  0  0  0  0  0
   75.9342   18.7784    2.5846 O   0  0  0  0  0  0  0  0  0  0  0  0
   75.8171   18.3884    3.9374 C   0  0  0  0  0  0  0  0  0  0  0  0
   75.1518   18.6632    0.3058 C   0  0  0  0  0  0  0  0  0  0  0  0
   74.1567   18.2253   -0.5302 C   0  0  0  0  0  0  0  0  0  0  0  0
   76.2764   19.3410   -0.0356 O   0  0  0  0  0  0  0  0  0  0  0  0
   76.7344   19.9128   -1.1904 C   0  0  0  0  0  0  0  0  0  0  0  0
   78.0238   20.6800   -1.0521 C   0  0  0  0  0  0  0  0  0  0  0  0
   78.6106   21.0145   -2.4238 C   0  0  0  0  0  0  0  0  0  0  0  0
  1  2  2  0
  2  3  1  0
  2  4  1  0
  4  5  1  0
  3  6  1  0
  5  6  1  0
  6  7  1  6
  6  8  1  0
  8  9  2  0
  9 10  1  0
 10 11  2  0
 11 12  1  0
 12 13  1  0
 11 14  1  0
  8 15  1  0
 14 15  2  0
 14 16  1  0
 16 17  1  0
 17 18  1  0
 18 19  1  0
M  END
$$$$
