1XM6_5RM_A_1003
     RDKit          3D

 19 20  0  0  0  0  0  0  0  0999 V2000
   73.6713   20.1103   10.2937 O   0  0  0  0  0  0  0  0  0  0  0  0
   73.7907   18.8456   10.4191 C   0  0  0  0  0  0  0  0  0  0  0  0
   73.6116   18.0845   11.5711 O   0  0  0  0  0  0  0  0  0  0  0  0
   74.1451   17.9506    9.3501 N   0  0  0  0  0  0  0  0  0  0  0  0
   74.1878   16.6296    9.9336 C   0  0  0  0  0  0  0  0  0  0  0  0
   74.4261   16.9156   11.3869 C   0  0  2  0  0  0  0  0  0  0  0  0
   73.9748   15.8214   12.2954 C   0  0  0  0  0  0  0  0  0  0  0  0
   75.7935   17.3139   11.7307 C   0  0  0  0  0  0  0  0  0  0  0  0
   76.6434   17.6986   10.7159 C   0  0  0  0  0  0  0  0  0  0  0  0
   77.9226   18.0677   11.0699 C   0  0  0  0  0  0  0  0  0  0  0  0
   78.3310   18.0511   12.3838 C   0  0  0  0  0  0  0  0  0  0  0  0
   79.6334   18.4348   12.6726 O   0  0  0  0  0  0  0  0  0  0  0  0
   80.5233   18.7413   11.6191 C   0  0  0  0  0  0  0  0  0  0  0  0
   77.4756   17.6614   13.4240 C   0  0  0  0  0  0  0  0  0  0  0  0
   76.2075   17.2989   13.0481 C   0  0  0  0  0  0  0  0  0  0  0  0
   77.9887   17.6826   14.6798 O   0  0  0  0  0  0  0  0  0  0  0  0
   77.5004   17.3663   15.9174 C   0  0  0  0  0  0  0  0  0  0  0  0
   78.4873   17.5116   17.0466 C   0  0  0  0  0  0  0  0  0  0  0  0
   77.8560   17.1088   18.3795 C   0  0  0  0  0  0  0  0  0  0  0  0
  1  2  2  0
  2  3  1  0
  2  4  1  0
  4  5  1  0
  3  6  1  0
  5  6  1  0
  6  7  1  1
  6  8  1  0
  8  9  2  0
  9 10  1  0
 10 11  2  0
 11 12  1  0
 12 13  1  0
 11 14  1  0
  8 15  1  0
 14 15  2  0
 14 16  1  0
 16 17  1  0
 17 18  1  0
 18 19  1  0
M  END
$$$$
