7QFM_AY3_A_402
     RDKit          3D

 20 22  0  0  0  0  0  0  0  0999 V2000
 -120.4045  207.8963    0.0421 C   0  0  0  0  0  0  0  0  0  0  0  0
 -120.7888  209.0744    0.6432 C   0  0  0  0  0  0  0  0  0  0  0  0
 -120.7980  210.4896    2.6801 C   0  0  0  0  0  0  0  0  0  0  0  0
 -120.4346  209.2712    1.9594 C   0  0  0  0  0  0  0  0  0  0  0  0
 -119.7196  208.3130    2.6400 C   0  0  0  0  0  0  0  0  0  0  0  0
 -119.3551  207.1490    2.0018 C   0  0  0  0  0  0  0  0  0  0  0  0
 -120.4211  210.7000    3.8788 O   0  0  0  0  0  0  0  0  0  0  0  0
 -119.6939  206.9037    0.6594 C   0  0  0  0  0  0  0  0  0  0  0  0
 -121.5811  211.4438    2.0264 O   0  0  0  0  0  0  0  0  0  0  0  0
 -119.2577  205.6598    0.1087 C   0  0  0  0  0  0  0  0  0  0  0  0
 -119.2465  205.1853   -1.0974 C   0  0  0  0  0  0  0  0  0  0  0  0
 -120.3809  207.0256   -2.2878 O   0  0  0  0  0  0  0  0  0  0  0  0
 -119.8305  205.8962   -2.2688 C   0  0  0  0  0  0  0  0  0  0  0  0
 -118.1427  202.8424   -1.1445 C   0  0  0  0  0  0  0  0  0  0  0  0
 -118.7654  203.9409   -1.6786 C   0  0  0  0  0  0  0  0  0  0  0  0
 -119.6781  205.0943   -3.4192 N   0  0  0  0  0  0  0  0  0  0  0  0
 -117.7980  201.7719   -1.9262 C   0  0  0  0  0  0  0  0  0  0  0  0
 -118.0500  201.7324   -3.2645 C   0  0  0  0  0  0  0  0  0  0  0  0
 -118.6770  202.8210   -3.8337 C   0  0  0  0  0  0  0  0  0  0  0  0
 -119.0241  203.9019   -3.0379 C   0  0  0  0  0  0  0  0  0  0  0  0
  1  2  2  0
  3  4  1  0
  2  4  1  0
  4  5  2  0
  5  6  1  0
  3  7  2  0
  1  8  1  0
  6  8  2  0
  3  9  1  0
  8 10  1  0
 10 11  2  0
 12 13  2  0
 11 13  1  0
 11 15  1  0
 14 15  2  0
 13 16  1  0
 14 17  1  0
 17 18  2  0
 18 19  1  0
 15 20  1  0
 16 20  1  0
 19 20  2  0
M  END
$$$$
