
     RDKit          3D

 25 26  0  0  0  0  0  0  0  0999 V2000
   82.8953    8.3805   67.8194 N   0  0  0  0  0  0  0  0  0  0  0  0
   81.7841    7.5886   68.2839 C   0  0  0  0  0  0  0  0  0  0  0  0
   80.9411    7.1281   67.1192 C   0  0  0  0  0  0  0  0  0  0  0  0
   79.9829    6.1171   67.2943 C   0  0  0  0  0  0  0  0  0  0  0  0
   79.2381    5.6651   66.1981 C   0  0  0  0  0  0  0  0  0  0  0  0
   78.2747    4.5764   66.3810 N   0  0  0  0  0  4  0  0  0  0  0  0
   77.8597    4.3666   67.5307 O   0  0  0  0  0  0  0  0  0  0  0  0
   77.9471    3.9223   65.3804 O   0  0  0  0  0  1  0  0  0  0  0  0
   79.4237    6.2197   64.9262 C   0  0  0  0  0  0  0  0  0  0  0  0
   80.3739    7.2253   64.7526 C   0  0  0  0  0  0  0  0  0  0  0  0
   81.1326    7.6697   65.8393 C   0  0  0  0  0  0  0  0  0  0  0  0
   82.8550    9.7566   67.8151 C   0  0  0  0  0  0  0  0  0  0  0  0
   82.1037   10.4200   68.5220 O   0  0  0  0  0  0  0  0  0  0  0  0
   83.8413   10.4344   66.9244 C   0  0  0  0  0  0  0  0  0  0  0  0
   83.3217   11.3322   65.9752 C   0  0  0  0  0  0  0  0  0  0  0  0
   84.1826   12.0438   65.1434 C   0  0  0  0  0  0  0  0  0  0  0  0
   85.5543   11.8484   65.2595 C   0  0  0  0  0  0  0  0  0  0  0  0
   86.3835   12.5316   64.4593 F   0  0  0  0  0  0  0  0  0  0  0  0
   86.0883   10.9436   66.1785 C   0  0  0  0  0  0  0  0  0  0  0  0
   85.2355   10.2190   67.0166 C   0  0  0  0  0  0  0  0  0  0  0  0
   85.6596    9.2497   67.8898 O   0  0  0  0  0  0  0  0  0  0  0  0
   86.6522    8.3224   67.4639 C   0  0  0  0  0  0  0  0  0  0  0  0
   86.2616    7.5308   66.2274 C   0  0  0  0  0  0  0  0  0  0  0  0
   87.0302    7.0492   65.4087 O   0  0  0  0  0  0  0  0  0  0  0  0
   84.9181    7.4004   66.0768 O   0  0  0  0  0  0  0  0  0  0  0  0
  1  2  1  0
  2  3  1  0
  3  4  4  0
  4  5  4  0
  5  6  1  0
  6  7  2  0
  6  8  1  0
  5  9  4  0
  9 10  4  0
 10 11  4  0
  3 11  4  0
  1 12  1  0
 12 13  2  0
 12 14  1  0
 14 15  4  0
 15 16  4  0
 16 17  4  0
 17 18  1  0
 17 19  4  0
 14 20  4  0
 19 20  4  0
 20 21  1  0
 21 22  1  0
 22 23  1  0
 23 24  2  0
 23 25  1  0
M  CHG  2   6   1   8  -1
M  END
