1IG3_VIB_B_501
     RDKit          3D

 35 36  0  0  0  0  0  0  0  0999 V2000
   17.8696   61.7394   13.5478 C   0  0  1  0  0  0  0  0  0  0  0  0
   13.3760   63.2302   14.6583 N   0  0  0  0  0  0  0  0  0  0  0  0
   14.1162   58.1597   15.0213 C   0  0  1  0  0  0  0  0  0  0  0  0
   12.7357   55.7235   19.8113 O   0  0  0  0  0  0  0  0  0  0  0  0
   13.0763   56.9563   19.2402 C   0  0  2  0  0  0  0  0  0  0  0  0
   13.1853   56.8261   17.7210 C   0  0  2  0  0  0  0  0  0  0  0  0
   11.0653   59.8199   16.2919 C   0  0  0  0  0  0  0  0  0  0  0  0
   11.1320   58.7349   17.5677 S   0  0  0  0  0  0  0  0  0  0  0  0
   12.5349   57.9878   17.0230 C   0  0  0  0  0  0  0  0  0  0  0  0
   12.9128   58.5927   15.8154 C   0  0  0  0  0  0  0  0  0  0  0  0
   12.1072   59.6418   15.4422 N   0  0  0  0  0  4  0  0  0  0  0  0
   12.2803   60.4711   14.2378 C   0  0  2  0  0  0  0  0  0  0  0  0
   14.2289   62.1518   14.2647 C   0  0  0  0  0  0  0  0  0  0  0  0
   15.5555   62.4005   14.1007 N   0  0  0  0  0  0  0  0  0  0  0  0
   16.4141   61.4380   13.6779 C   0  0  0  0  0  0  0  0  0  0  0  0
   15.9531   60.1887   13.4191 N   0  0  0  0  0  0  0  0  0  0  0  0
   14.6401   59.8827   13.5698 C   0  0  0  0  0  0  0  0  0  0  0  0
   13.7305   60.8517   14.0214 C   0  0  0  0  0  0  0  0  0  0  0  0
   18.2344   61.4406   12.5424 H   0  0  0  0  0  0  0  0  0  0  0  0
   18.0491   62.8271   13.6822 H   0  0  0  0  0  0  0  0  0  0  0  0
   18.4334   61.1785   14.3219 H   0  0  0  0  0  0  0  0  0  0  0  0
   12.3899   63.0792   14.9564 H   0  0  0  0  0  0  0  0  0  0  0  0
   13.7014   64.2156   14.5438 H   0  0  0  0  0  0  0  0  0  0  0  0
   14.8808   58.9636   15.0377 H   0  0  0  0  0  0  0  0  0  0  0  0
   14.5646   57.2326   15.4284 H   0  0  0  0  0  0  0  0  0  0  0  0
   13.8289   57.9358   13.9750 H   0  0  0  0  0  0  0  0  0  0  0  0
   13.4171   55.5468   20.5107 H   0  0  0  0  0  0  0  0  0  0  0  0
   14.0577   57.2934   19.6419 H   0  0  0  0  0  0  0  0  0  0  0  0
   12.3082   57.7202   19.4976 H   0  0  0  0  0  0  0  0  0  0  0  0
   12.7457   55.8636   17.3855 H   0  0  0  0  0  0  0  0  0  0  0  0
   14.2606   56.8028   17.4427 H   0  0  0  0  0  0  0  0  0  0  0  0
   10.2919   60.5659   16.1613 H   0  0  0  0  0  0  0  0  0  0  0  0
   11.6766   61.4021   14.3096 H   0  0  0  0  0  0  0  0  0  0  0  0
   11.8752   59.9215   13.3608 H   0  0  0  0  0  0  0  0  0  0  0  0
   14.3102   58.8753   13.3516 H   0  0  0  0  0  0  0  0  0  0  0  0
  4  5  1  0
  5  6  1  0
  7  8  1  0
  6  9  1  0
  8  9  1  0
  3 10  1  0
  9 10  2  0
  7 11  2  0
 10 11  1  0
 11 12  1  0
  2 13  1  0
 13 14  2  0
  1 15  1  0
 14 15  1  0
 15 16  2  0
 16 17  1  0
 12 18  1  0
 13 18  1  0
 17 18  2  0
  1 19  1  6
  1 20  1  0
  1 21  1  0
  2 22  1  0
  2 23  1  0
  3 24  1  6
  3 25  1  0
  3 26  1  0
  4 27  1  0
  5 28  1  1
  5 29  1  0
  6 30  1  6
  6 31  1  0
  7 32  1  0
 12 33  1  1
 12 34  1  0
 17 35  1  0
M  CHG  1  11   1
M  END
