1YGC_905_H_1
     RDKit          3D

 66 68  0  0  0  0  0  0  0  0999 V2000
   -6.3413    1.7807    1.4873 O   0  0  0  0  0  0  0  0  0  0  0  0
   -5.0713    1.5122    1.9986 C   0  0  0  0  0  0  0  0  0  0  0  0
   -4.0221    1.2067    1.1193 C   0  0  0  0  0  0  0  0  0  0  0  0
   -2.7386    0.9107    1.6012 C   0  0  0  0  0  0  0  0  0  0  0  0
   -1.6896    0.5988    0.6612 N   0  0  0  0  0  0  0  0  0  0  0  0
   -0.2902    0.3479    1.0367 C   0  0  1  0  0  0  0  0  0  0  0  0
   -0.1319   -1.0083    1.6736 C   0  0  0  0  0  0  0  0  0  0  0  0
   -1.0334   -1.8812    1.5442 O   0  0  0  0  0  0  0  0  0  0  0  0
    1.0851   -1.3316    2.3527 N   0  0  0  0  0  0  0  0  0  0  0  0
    1.6155   -2.9733    2.4832 S   0  0  0  0  0  6  0  0  0  0  0  0
    0.6812   -3.7336    3.3832 O   0  0  0  0  0  0  0  0  0  0  0  0
    2.9955   -3.0113    3.0769 O   0  0  0  0  0  0  0  0  0  0  0  0
    1.6583   -3.6834    0.8726 C   0  0  0  0  0  0  0  0  0  0  0  0
    2.5993   -3.2271   -0.0615 C   0  0  0  0  0  0  0  0  0  0  0  0
    2.6204   -3.7583   -1.3537 C   0  0  0  0  0  0  0  0  0  0  0  0
    1.6970   -4.7413   -1.7221 C   0  0  0  0  0  0  0  0  0  0  0  0
    0.7439   -5.1943   -0.8001 C   0  0  0  0  0  0  0  0  0  0  0  0
   -0.2091   -6.1905   -1.1810 N   0  0  0  0  0  0  0  0  0  0  0  0
    0.7258   -4.6606    0.4972 C   0  0  0  0  0  0  0  0  0  0  0  0
    0.6103    0.4418   -0.1832 C   0  0  0  0  0  0  0  0  0  0  0  0
    1.5467    1.4852   -0.3126 C   0  0  0  0  0  0  0  0  0  0  0  0
    1.6559    2.4375    0.6496 F   0  0  0  0  0  0  0  0  0  0  0  0
    2.3815    1.5600   -1.4345 C   0  0  0  0  0  0  0  0  0  0  0  0
    3.2948    2.6226   -1.5123 O   0  0  0  0  0  0  0  0  0  0  0  0
    4.1924    2.8411   -2.5977 C   0  0  0  0  0  0  0  0  0  0  0  0
    5.0148    4.0920   -2.3319 C   0  0  0  0  0  0  0  0  0  0  0  0
    2.2818    0.5807   -2.4401 C   0  0  0  0  0  0  0  0  0  0  0  0
    1.3447   -0.4613   -2.3291 C   0  0  0  0  0  0  0  0  0  0  0  0
    1.2058   -1.4573   -3.3078 O   0  0  0  0  0  0  0  0  0  0  0  0
    1.9848   -1.5316   -4.4987 C   0  0  0  0  0  0  0  0  0  0  0  0
    1.5516   -2.7385   -5.3145 C   0  0  0  0  0  0  0  0  0  0  0  0
    0.5147   -0.5185   -1.2071 C   0  0  0  0  0  0  0  0  0  0  0  0
   -2.5171    0.9228    2.9895 C   0  0  0  0  0  0  0  0  0  0  0  0
   -3.5560    1.2313    3.8708 C   0  0  0  0  0  0  0  0  0  0  0  0
   -4.8425    1.5292    3.3910 C   0  0  0  0  0  0  0  0  0  0  0  0
   -5.9273    1.8620    4.3488 C   0  0  0  0  0  0  0  0  0  0  0  0
   -6.8355    2.7265    4.0206 N   0  0  0  0  0  0  0  0  0  0  0  0
   -5.9749    1.2413    5.6394 N   0  0  0  0  0  0  0  0  0  0  0  0
   -6.5293    1.7648    0.4910 H   0  0  0  0  0  0  0  0  0  0  0  0
   -4.2093    1.1970    0.0527 H   0  0  0  0  0  0  0  0  0  0  0  0
   -1.9506    0.5342   -0.3495 H   0  0  0  0  0  0  0  0  0  0  0  0
    0.0186    1.1129    1.7803 H   0  0  0  0  0  0  0  0  0  0  0  0
    1.7642   -0.5728    2.5820 H   0  0  0  0  0  0  0  0  0  0  0  0
    3.3094   -2.4558    0.2097 H   0  0  0  0  0  0  0  0  0  0  0  0
    3.3474   -3.4030   -2.0722 H   0  0  0  0  0  0  0  0  0  0  0  0
    1.7221   -5.1466   -2.7255 H   0  0  0  0  0  0  0  0  0  0  0  0
   -0.9240   -6.5356   -0.5016 H   0  0  0  0  0  0  0  0  0  0  0  0
   -0.2111   -6.5861   -2.1477 H   0  0  0  0  0  0  0  0  0  0  0  0
   -0.0186   -5.0019    1.2064 H   0  0  0  0  0  0  0  0  0  0  0  0
    4.8763    1.9710   -2.7020 H   0  0  0  0  0  0  0  0  0  0  0  0
    3.6177    2.9769   -3.5394 H   0  0  0  0  0  0  0  0  0  0  0  0
    5.7084    4.2734   -3.1803 H   0  0  0  0  0  0  0  0  0  0  0  0
    4.3434    4.9701   -2.2203 H   0  0  0  0  0  0  0  0  0  0  0  0
    5.6080    3.9643   -1.4015 H   0  0  0  0  0  0  0  0  0  0  0  0
    2.9267    0.6313   -3.3044 H   0  0  0  0  0  0  0  0  0  0  0  0
    1.8350   -0.6113   -5.1043 H   0  0  0  0  0  0  0  0  0  0  0  0
    3.0609   -1.6362   -4.2394 H   0  0  0  0  0  0  0  0  0  0  0  0
    0.4707   -2.6641   -5.5613 H   0  0  0  0  0  0  0  0  0  0  0  0
    2.1353   -2.7818   -6.2584 H   0  0  0  0  0  0  0  0  0  0  0  0
    1.7294   -3.6707   -4.7385 H   0  0  0  0  0  0  0  0  0  0  0  0
   -0.2054   -1.3240   -1.1302 H   0  0  0  0  0  0  0  0  0  0  0  0
   -1.5464    0.6942    3.4059 H   0  0  0  0  0  0  0  0  0  0  0  0
   -3.3421    1.2571    4.9319 H   0  0  0  0  0  0  0  0  0  0  0  0
   -7.6111    2.9847    4.6706 H   0  0  0  0  0  0  0  0  0  0  0  0
   -6.7085    1.5094    6.3317 H   0  0  0  0  0  0  0  0  0  0  0  0
   -5.3248    0.4645    5.8904 H   0  0  0  0  0  0  0  0  0  0  0  0
  1  2  1  0
  2  3  2  0
  3  4  1  0
  4  5  1  0
  6  5  1  0
  6  7  1  0
  7  8  2  0
  7  9  1  0
  9 10  1  0
 10 11  2  0
 10 12  2  0
 10 13  1  0
 13 14  2  0
 14 15  1  0
 15 16  2  0
 16 17  1  0
 17 18  1  0
 13 19  1  0
 17 19  2  0
  6 20  1  0
 20 21  2  0
 21 22  1  0
 21 23  1  0
 23 24  1  0
 24 25  1  0
 25 26  1  0
 23 27  2  0
 27 28  1  0
 28 29  1  0
 29 30  1  0
 30 31  1  0
 20 32  1  0
 28 32  2  0
  4 33  2  0
 33 34  1  0
  2 35  1  0
 34 35  2  0
 35 36  1  0
 36 37  2  0
 36 38  1  0
  1 39  1  0
  3 40  1  0
  5 41  1  0
  6 42  1  1
  9 43  1  0
 14 44  1  0
 15 45  1  0
 16 46  1  0
 18 47  1  0
 18 48  1  0
 19 49  1  0
 25 50  1  0
 25 51  1  0
 26 52  1  0
 26 53  1  0
 26 54  1  0
 27 55  1  0
 30 56  1  0
 30 57  1  0
 31 58  1  0
 31 59  1  0
 31 60  1  0
 32 61  1  0
 33 62  1  0
 34 63  1  0
 37 64  1  0
 38 65  1  0
 38 66  1  0
M  END
