@<TRIPOS>MOLECULE
1YGC_905_H_1
 66 68 0 0 0
SMALL
GASTEIGER

@<TRIPOS>ATOM
      1 O          11.7260   38.9400   27.7690 O.3     1  UNL1       -0.5058
      2 C          12.2260   38.6600   29.1430 C.ar    1  UNL1        0.1334
      3 C          11.5030   39.1320   30.2560 C.ar    1  UNL1        0.0016
      4 C          11.9720   38.8700   31.5710 C.ar    1  UNL1        0.0314
      5 N          11.2170   39.3730   32.6990 N.pl3   1  UNL1       -0.3292
      6 C           9.9900   40.1450   32.4640 C.3     1  UNL1        0.1274
      7 C           9.1220   40.2060   33.6840 C.2     1  UNL1        0.2569
      8 O           9.4600   39.6850   34.7550 O.2     1  UNL1       -0.2718
      9 N           7.9750   40.8520   33.5540 N.am    1  UNL1       -0.1837
     10 S           6.8740   41.0420   34.7960 S.O2    1  UNL1        0.0745
     11 O           6.6940   39.7880   35.4670 O.2     1  UNL1       -0.1499
     12 O           5.6430   41.5490   34.2790 O.2     1  UNL1       -0.1499
     13 C           7.6010   42.2020   35.8630 C.ar    1  UNL1        0.1103
     14 C           7.4210   42.1260   37.2710 C.ar    1  UNL1       -0.0350
     15 C           8.0430   43.1110   38.1080 C.ar    1  UNL1       -0.0582
     16 C           8.8330   44.1520   37.5280 C.ar    1  UNL1       -0.0409
     17 C           9.0090   44.2170   36.1150 C.ar    1  UNL1        0.0264
     18 N           9.7480   45.1880   35.5680 N.pl3   1  UNL1       -0.3579
     19 C           8.3940   43.2450   35.2870 C.ar    1  UNL1       -0.0144
     20 C          10.4210   41.6170   32.1940 C.ar    1  UNL1        0.0239
     21 C          10.0160   42.2660   30.9990 C.ar    1  UNL1        0.1704
     22 F           9.2580   41.6260   30.0960 F       1  UNL1       -0.2013
     23 C          10.4050   43.5880   30.7500 C.ar    1  UNL1        0.1593
     24 O           9.9820   44.2400   29.4940 O.3     1  UNL1       -0.4892
     25 C          10.6270   45.6530   29.3720 C.3     1  UNL1        0.0869
     26 C          10.2300   46.2620   28.0270 C.3     1  UNL1       -0.0307
     27 C          11.2030   44.2880   31.6810 C.ar    1  UNL1        0.0247
     28 C          11.6170   43.6680   32.8750 C.ar    1  UNL1        0.1245
     29 O          12.4600   44.4650   33.8020 O.3     1  UNL1       -0.4921
     30 C          12.9390   43.6620   35.0230 C.3     1  UNL1        0.0868
     31 C          13.9970   44.5050   35.7280 C.3     1  UNL1       -0.0307
     32 C          11.2340   42.3210   33.1480 C.ar    1  UNL1       -0.0115
     33 C          13.1640   38.1350   31.7720 C.ar    1  UNL1       -0.0398
     34 C          13.8970   37.6620   30.6540 C.ar    1  UNL1       -0.0416
     35 C          13.4380   37.9210   29.3410 C.ar    1  UNL1        0.1061
     36 C          14.2090   37.4230   28.1890 C.2     1  UNL1        0.3117
     37 N          15.3340   36.7390   28.3840 N.2     1  UNL1       -0.0993
     38 N          13.7820   37.6560   26.9580 N.pl3   1  UNL1       -0.2465
     39 H          10.9327   39.4239   27.6487 H       1  UNL1        0.2922
     40 H          10.6324   39.6682   30.1160 H       1  UNL1        0.0673
     41 H          11.5241   39.1987   33.6180 H       1  UNL1        0.1471
     42 H           9.4552   39.6832   31.6605 H       1  UNL1        0.0646
     43 H           7.7582   41.2425   32.6766 H       1  UNL1        0.1766
     44 H           6.8506   41.3724   37.6854 H       1  UNL1        0.0637
     45 H           7.9199   43.0681   39.1317 H       1  UNL1        0.0619
     46 H           9.2774   44.8589   38.1345 H       1  UNL1        0.0636
     47 H          10.1757   45.8638   36.1421 H       1  UNL1        0.1423
     48 H           9.8643   45.2271   34.5912 H       1  UNL1        0.1423
     49 H           8.5186   43.2895   34.2635 H       1  UNL1        0.0655
     50 H          11.6922   45.5680   29.4278 H       1  UNL1        0.0694
     51 H          10.2845   46.2788   30.1695 H       1  UNL1        0.0694
     52 H          10.5753   45.6317   27.2343 H       1  UNL1        0.0262
     53 H          10.6721   47.2316   27.9301 H       1  UNL1        0.0262
     54 H           9.1648   46.3489   27.9753 H       1  UNL1        0.0262
     55 H          11.4848   45.2612   31.4847 H       1  UNL1        0.0692
     56 H          13.3620   42.7313   34.7071 H       1  UNL1        0.0694
     57 H          12.1231   43.4469   35.6810 H       1  UNL1        0.0694
     58 H          14.8011   44.7069   35.0516 H       1  UNL1        0.0262
     59 H          14.3705   43.9716   36.5770 H       1  UNL1        0.0262
     60 H          13.5615   45.4278   36.0499 H       1  UNL1        0.0262
     61 H          11.5367   41.8580   34.0192 H       1  UNL1        0.0658
     62 H          13.4990   37.9437   32.7292 H       1  UNL1        0.0636
     63 H          14.7678   37.1273   30.7985 H       1  UNL1        0.0628
     64 H          15.6521   36.5654   29.2994 H       1  UNL1        0.3633
     65 H          12.9499   38.1619   26.8131 H       1  UNL1        0.2884
     66 H          14.2965   37.3234   26.1873 H       1  UNL1        0.2884
@<TRIPOS>BOND
     1     1     2    1
     2     2     3   ar
     3     3     4   ar
     4     4     5    1
     5     6     5    1
     6     6     7    1
     7     7     8    2
     8     7     9   am
     9     9    10    1
    10    10    11    2
    11    10    12    2
    12    10    13    1
    13    13    14   ar
    14    14    15   ar
    15    15    16   ar
    16    16    17   ar
    17    17    18    1
    18    13    19   ar
    19    17    19   ar
    20     6    20    1
    21    20    21   ar
    22    21    22    1
    23    21    23   ar
    24    23    24    1
    25    24    25    1
    26    25    26    1
    27    23    27   ar
    28    27    28   ar
    29    28    29    1
    30    29    30    1
    31    30    31    1
    32    20    32   ar
    33    28    32   ar
    34     4    33   ar
    35    33    34   ar
    36     2    35   ar
    37    34    35   ar
    38    35    36    1
    39    36    37    2
    40    36    38    1
    41     1    39    1
    42     3    40    1
    43     5    41    1
    44     6    42    1
    45     9    43    1
    46    14    44    1
    47    15    45    1
    48    16    46    1
    49    18    47    1
    50    18    48    1
    51    19    49    1
    52    25    50    1
    53    25    51    1
    54    26    52    1
    55    26    53    1
    56    26    54    1
    57    27    55    1
    58    30    56    1
    59    30    57    1
    60    31    58    1
    61    31    59    1
    62    31    60    1
    63    32    61    1
    64    33    62    1
    65    34    63    1
    66    37    64    1
    67    38    65    1
    68    38    66    1
