1UOU_CMU_A_1481
     RDKit          3D

 16 17  0  0  0  0  0  0  0  0999 V2000
   -6.6464   -0.5258   25.5666 Cl  0  0  0  0  0  0  0  0  0  0  0  0
   -5.8633    0.1702   24.1876 C   0  0  0  0  0  0  0  0  0  0  0  0
   -6.5369    0.9780   23.3316 C   0  0  0  0  0  0  0  0  0  0  0  0
   -8.0275    1.2967   23.4760 C   0  0  0  0  0  0  0  0  0  0  0  0
   -8.6745    0.8684   22.1986 N   0  0  0  0  0  0  0  0  0  0  0  0
   -8.4370   -0.4322   21.5352 C   0  0  0  0  0  0  0  0  0  0  0  0
   -9.4920   -0.5278   20.4068 C   0  0  0  0  0  0  0  0  0  0  0  0
  -10.0534    0.9112   20.1928 C   0  0  0  0  0  0  0  0  0  0  0  0
   -9.5566    1.6179   21.4533 C   0  0  0  0  0  0  0  0  0  0  0  0
   -9.9532    2.7996   21.8214 N   0  0  0  0  0  0  0  0  0  0  0  0
   -5.8338    1.4875   22.2694 N   0  0  0  0  0  0  0  0  0  0  0  0
   -4.5292    1.2174   22.0444 C   0  0  0  0  0  0  0  0  0  0  0  0
   -3.9812    1.7063   21.0642 O   0  0  0  0  0  0  0  0  0  0  0  0
   -3.8530    0.4111   22.8857 N   0  0  0  0  0  0  0  0  0  0  0  0
   -4.4849   -0.0994   23.9520 C   0  0  0  0  0  0  0  0  0  0  0  0
   -3.8698   -0.7981   24.7230 O   0  0  0  0  0  0  0  0  0  0  0  0
  1  2  1  0
  2  3  2  0
  3  4  1  0
  4  5  1  0
  5  6  1  0
  6  7  1  0
  7  8  1  0
  5  9  1  0
  8  9  1  0
  9 10  2  0
  3 11  1  0
 11 12  1  0
 12 13  2  0
 12 14  1  0
  2 15  1  0
 14 15  1  0
 15 16  2  0
M  END
