7XBV_APC_A_601
     RDKit          3D

 31 33  0  0  0  0  0  0  0  0999 V2000
  -43.7486   12.4183  -32.5414 P   0  0  2  0  0  0  0  0  0  0  0  0
  -42.3701   12.8335  -33.0607 O   0  0  0  0  0  0  0  0  0  0  0  0
  -44.7134   11.9978  -33.8743 O   0  0  0  0  0  0  0  0  0  0  0  0
  -44.3780   13.7952  -31.7669 O   0  0  0  0  0  0  0  0  0  0  0  0
  -45.1466   10.6807  -30.8531 P   0  0  1  0  0  0  0  0  0  0  0  0
  -45.3970   11.3285  -29.5065 O   0  0  0  0  0  0  0  0  0  0  0  0
  -46.3970   11.1187  -31.8822 O   0  0  0  0  0  0  0  0  0  0  0  0
  -43.6550   11.1940  -31.4069 O   0  0  0  0  0  0  0  0  0  0  0  0
  -46.8078    8.3516  -30.0539 P   0  0  1  0  0  0  0  0  0  0  0  0
  -47.7703    9.5034  -29.9876 O   0  0  0  0  0  0  0  0  0  0  0  0
  -47.4574    7.2392  -31.1764 O   0  0  0  0  0  0  0  0  0  0  0  0
  -45.1496    8.8701  -30.5720 C   0  0  0  0  0  0  0  0  0  0  0  0
  -46.6981    7.6443  -28.5292 O   0  0  0  0  0  0  0  0  0  0  0  0
  -47.7525    6.7484  -28.3640 C   0  0  0  0  0  0  0  0  0  0  0  0
  -47.2628    5.3808  -27.9313 C   0  0  1  0  0  0  0  0  0  0  0  0
  -46.3884    5.4889  -26.8337 O   0  0  0  0  0  0  0  0  0  0  0  0
  -48.4011    4.4973  -27.5204 C   0  0  1  0  0  0  0  0  0  0  0  0
  -48.5012    3.3366  -28.2792 O   0  0  0  0  0  0  0  0  0  0  0  0
  -48.0064    4.0936  -26.1232 C   0  0  1  0  0  0  0  0  0  0  0  0
  -48.3186    2.7837  -25.8154 O   0  0  0  0  0  0  0  0  0  0  0  0
  -46.4846    4.2614  -26.2305 C   0  0  2  0  0  0  0  0  0  0  0  0
  -45.8897    4.2570  -24.9069 N   0  0  0  0  0  0  0  0  0  0  0  0
  -46.1909    5.0803  -23.8833 C   0  0  0  0  0  0  0  0  0  0  0  0
  -45.4190    4.7508  -22.8339 N   0  0  0  0  0  0  0  0  0  0  0  0
  -44.6287    3.7132  -23.2041 C   0  0  0  0  0  0  0  0  0  0  0  0
  -43.6688    3.0160  -22.4923 C   0  0  0  0  0  0  0  0  0  0  0  0
  -43.3573    3.3405  -21.1249 N   0  0  0  0  0  0  0  0  0  0  0  0
  -43.0291    2.0086  -23.1377 N   0  0  0  0  0  0  0  0  0  0  0  0
  -43.3015    1.6833  -24.4189 C   0  0  0  0  0  0  0  0  0  0  0  0
  -44.2517    2.3840  -25.1018 N   0  0  0  0  0  0  0  0  0  0  0  0
  -44.9250    3.3958  -24.5226 C   0  0  0  0  0  0  0  0  0  0  0  0
  1  2  2  0
  1  3  1  6
  1  4  1  0
  5  6  2  0
  5  7  1  6
  1  8  1  0
  5  8  1  0
  9 10  2  0
  9 11  1  6
  5 12  1  0
  9 12  1  0
  9 13  1  0
 13 14  1  0
 15 14  1  1
 15 16  1  0
 15 17  1  0
 17 18  1  6
 17 19  1  0
 19 20  1  6
 16 21  1  0
 19 21  1  0
 21 22  1  1
 22 23  1  0
 23 24  2  0
 24 25  1  0
 25 26  2  0
 26 27  1  0
 26 28  1  0
 28 29  2  0
 29 30  1  0
 22 31  1  0
 25 31  1  0
 30 31  2  0
M  END
$$$$
