
     RDKit          3D

 25 26  0  0  0  0  0  0  0  0999 V2000
    8.5850   21.6258   30.9872 O   0  0  0  0  0  0  0  0  0  0  0  0
    9.2013   22.7880   30.0786 P   0  0  0  0  0  5  0  0  0  0  0  0
   10.6496   22.6434   29.7787 O   0  0  0  0  0  0  0  0  0  0  0  0
    8.9028   24.0617   31.0023 O   0  0  0  0  0  0  0  0  0  0  0  0
    8.1875   22.9130   28.8705 O   0  0  0  0  0  0  0  0  0  0  0  0
    8.3455   22.0807   27.5292 P   0  0  2  0  0  5  0  0  0  0  0  0
    7.8814   22.7279   26.2716 O   0  0  0  0  0  0  0  0  0  0  0  0
    7.5471   20.7239   27.8428 O   0  0  0  0  0  0  0  0  0  0  0  0
    9.8803   21.5967   27.5212 O   0  0  0  0  0  0  0  0  0  0  0  0
   10.1660   20.2605   27.8910 C   0  0  0  0  0  0  0  0  0  0  0  0
   11.5667   20.1586   28.4910 C   0  0  1  0  0  0  0  0  0  0  0  0
   11.4413   19.6128   29.8248 O   0  0  0  0  0  0  0  0  0  0  0  0
   12.5021   19.2340   27.7082 C   0  0  1  0  0  0  0  0  0  0  0  0
   13.8723   19.6154   27.9285 O   0  0  0  0  0  0  0  0  0  0  0  0
   12.2645   17.8973   28.3872 C   0  0  1  0  0  0  0  0  0  0  0  0
   13.3079   16.9727   28.1166 O   0  0  0  0  0  0  0  0  0  0  0  0
   12.1404   18.3449   29.8539 C   0  0  2  0  0  0  0  0  0  0  0  0
   11.4307   17.3895   30.6931 N   0  0  0  0  0  0  0  0  0  0  0  0
   11.8744   17.2517   32.0118 C   0  0  0  0  0  0  0  0  0  0  0  0
   12.8003   17.9314   32.4491 O   0  0  0  0  0  0  0  0  0  0  0  0
   11.2393   16.3365   32.8193 N   0  0  0  0  0  0  0  0  0  0  0  0
   10.2799   15.6081   32.3463 C   0  0  0  0  0  0  0  0  0  0  0  0
    9.6912   14.7225   33.2072 N   0  0  0  0  0  0  0  0  0  0  0  0
    9.8189   15.6861   30.9474 C   0  0  0  0  0  0  0  0  0  0  0  0
   10.4324   16.5897   30.1846 C   0  0  0  0  0  0  0  0  0  0  0  0
  1  2  1  0
  2  3  2  0
  2  4  1  0
  2  5  1  0
  6  5  1  0
  6  7  2  0
  6  8  1  1
  6  9  1  0
  9 10  1  0
 11 10  1  6
 11 12  1  0
 11 13  1  0
 13 14  1  1
 13 15  1  0
 15 16  1  1
 12 17  1  0
 15 17  1  0
 17 18  1  1
 18 19  4  0
 19 20  2  0
 19 21  4  0
 21 22  4  0
 22 23  1  0
 22 24  4  0
 18 25  4  0
 24 25  4  0
M  END
