6XCT_478_A_401
     RDKit          3D

 35 37  0  0  0  0  0  0  0  0999 V2000
   11.1190   12.5406  -11.1143 C   0  0  0  0  0  0  0  0  0  0  0  0
   12.0620   11.6673  -13.0800 C   0  0  0  0  0  0  0  0  0  0  0  0
   12.9958   14.9928  -11.9297 C   0  0  0  0  0  0  0  0  0  0  0  0
   11.8507   13.0283  -12.3823 C   0  0  2  0  0  0  0  0  0  0  0  0
   14.4106   16.8982  -11.3753 C   0  0  2  0  0  0  0  0  0  0  0  0
   15.9193   17.1632  -11.4938 C   0  0  1  0  0  0  0  0  0  0  0  0
   13.7869   17.4166  -10.0703 C   0  0  0  0  0  0  0  0  0  0  0  0
   12.3053   17.1016   -9.9935 C   0  0  0  0  0  0  0  0  0  0  0  0
   11.3586   18.1056  -10.1260 C   0  0  0  0  0  0  0  0  0  0  0  0
   11.8611   15.8011   -9.8008 C   0  0  0  0  0  0  0  0  0  0  0  0
   10.0024   17.8209  -10.0686 C   0  0  0  0  0  0  0  0  0  0  0  0
   10.5045   15.5172   -9.7481 C   0  0  0  0  0  0  0  0  0  0  0  0
    9.5798   16.5257   -9.8851 C   0  0  0  0  0  0  0  0  0  0  0  0
   16.2140   18.6510  -11.4807 C   0  0  0  0  0  0  0  0  0  0  0  0
   15.9421   19.8878   -9.3536 C   0  0  0  0  0  0  0  0  0  0  0  0
   16.8998   21.0579   -9.4351 C   0  0  2  0  0  0  0  0  0  0  0  0
   13.1951   19.1978   -8.9702 C   0  0  0  0  0  0  0  0  0  0  0  0
   12.8747   18.0084   -8.3261 C   0  0  0  0  0  0  0  0  0  0  0  0
   12.4511   18.0391   -7.0097 C   0  0  0  0  0  0  0  0  0  0  0  0
   12.3522   19.2533   -6.3124 C   0  0  0  0  0  0  0  0  0  0  0  0
   12.6911   20.4391   -6.9760 C   0  0  0  0  0  0  0  0  0  0  0  0
   13.1032   20.4118   -8.2946 C   0  0  0  0  0  0  0  0  0  0  0  0
   16.8224   21.8415  -10.7051 C   0  0  0  0  0  0  0  0  0  0  0  0
   18.3194   20.4863   -9.2347 C   0  0  0  0  0  0  0  0  0  0  0  0
   12.5490   10.8497  -11.9005 C   0  0  0  0  0  0  0  0  0  0  0  0
   14.1646   15.4687  -11.5100 N   0  0  0  0  0  0  0  0  0  0  0  0
   15.3459   19.4767  -10.6334 N   0  0  0  0  0  0  0  0  0  0  0  0
   11.9321   19.2823   -4.9994 N   0  0  0  0  0  0  0  0  0  0  0  0
   13.0688   13.6303  -12.0135 O   0  0  0  0  0  0  0  0  0  0  0  0
   11.9932   15.6500  -12.1821 O   0  0  0  0  0  0  0  0  0  0  0  0
   16.6324   16.5914  -10.3962 O   0  0  0  0  0  0  0  0  0  0  0  0
   13.5476   17.8648  -11.1743 O   0  0  0  0  0  0  0  0  0  0  0  0
   13.1485   20.2909  -11.3193 O   0  0  0  0  0  0  0  0  0  0  0  0
   11.7980   11.3155  -10.7605 O   0  0  0  0  0  0  0  0  0  0  0  0
   13.7428   19.1786  -10.6482 S   0  0  1  0  0  0  0  0  0  0  0  0
  1  4  1  0
  2  4  1  0
  5  6  1  0
  5  7  1  1
  7  8  1  0
  8  9  2  0
  8 10  1  0
  9 11  1  0
 10 12  2  0
 11 13  2  0
 12 13  1  0
  6 14  1  0
 15 16  1  0
 17 18  2  0
 18 19  1  0
 19 20  2  0
 20 21  1  0
 17 22  1  0
 21 22  2  0
 16 23  1  6
 16 24  1  0
  2 25  1  0
  3 26  1  0
  5 26  1  0
 14 27  1  0
 15 27  1  0
 20 28  1  0
  3 29  1  0
  4 29  1  1
  3 30  2  0
  6 31  1  1
  1 34  1  0
 25 34  1  0
 17 35  1  0
 35 27  1  1
 32 35  2  0
 33 35  2  0
M  END
