7Q25_8J9_B_702
     RDKit          3D

 65 66  0  0  0  0  0  0  0  0999 V2000
  -54.4666  100.9640   24.0345 C   0  0  0  0  0  0  0  0  0  0  0  0
  -53.5463  100.6481   26.3762 C   0  0  0  0  0  0  0  0  0  0  0  0
  -54.5527  101.2313   25.3852 C   0  0  0  0  0  0  0  0  0  0  0  0
  -55.4019  101.5017   23.1443 C   0  0  0  0  0  0  0  0  0  0  0  0
  -56.4081  102.2961   23.6563 C   0  0  0  0  0  0  0  0  0  0  0  0
  -56.4813  102.5883   24.9941 C   0  0  0  0  0  0  0  0  0  0  0  0
  -55.5684  102.0452   25.8708 C   0  0  0  0  0  0  0  0  0  0  0  0
  -52.1444   95.8992   27.7404 C   0  0  2  0  0  0  0  0  0  0  0  0
  -53.4002   95.4175   27.1439 C   0  0  0  0  0  0  0  0  0  0  0  0
  -51.2263   94.7062   28.0126 C   0  0  0  0  0  0  0  0  0  0  0  0
  -53.0834   99.5299   25.3290 C   0  0  0  0  0  0  0  0  0  0  0  0
  -52.6315  100.4349   26.4809 C   0  0  0  0  0  0  0  0  0  0  0  0
  -53.2519  100.0701   27.8127 C   0  0  0  0  0  0  0  0  0  0  0  0
  -52.4908   98.9585   28.5447 C   0  0  0  0  0  0  0  0  0  0  0  0
  -53.3235   97.7107   28.8648 C   0  0  1  0  0  0  0  0  0  0  0  0
  -54.3173   97.4378   27.7637 C   0  0  0  0  0  0  0  0  0  0  0  0
  -53.3094   99.1657   26.2948 C   0  0  1  0  0  0  0  0  0  0  0  0
  -52.1201   98.7986   27.1701 C   0  0  0  0  0  0  0  0  0  0  0  0
  -51.4696   93.5978   27.0090 C   0  0  0  0  0  0  0  0  0  0  0  0
  -50.2761   92.6482   26.8096 C   0  0  0  0  0  0  0  0  0  0  0  0
  -49.7375   92.5322   25.5437 C   0  0  0  0  0  0  0  0  0  0  0  0
  -48.6426   91.6877   25.3531 C   0  0  0  0  0  0  0  0  0  0  0  0
  -48.1381   90.9706   26.4155 C   0  0  0  0  0  0  0  0  0  0  0  0
  -48.6758   91.0788   27.6790 C   0  0  0  0  0  0  0  0  0  0  0  0
  -49.7549   91.9250   27.8745 C   0  0  0  0  0  0  0  0  0  0  0  0
  -54.4642   98.3824   26.7151 N   0  0  0  0  0  0  0  0  0  0  0  0
  -52.4049   96.5681   29.0324 N   0  0  0  0  0  0  0  0  0  0  0  0
  -52.1378   99.0297   28.4280 O   0  0  0  0  0  0  0  0  0  0  0  0
  -51.1112   98.3120   26.6359 O   0  0  0  0  0  0  0  0  0  0  0  0
  -57.3668  102.8556   22.7840 O   0  0  0  0  0  0  0  0  0  0  0  0
  -55.0026   96.4373   27.7521 O   0  0  0  0  0  0  0  0  0  0  0  0
  -53.5763   94.5543   26.1285 O   0  0  0  0  0  0  0  0  0  0  0  0
  -54.5785   95.9006   27.4307 O   0  0  0  0  0  0  0  0  0  0  0  0
  -53.7067  100.3632   23.6784 H   0  0  0  0  0  0  0  0  0  0  0  0
  -53.8965  100.8680   27.3631 H   0  0  0  0  0  0  0  0  0  0  0  0
  -52.6086  101.0997   26.1276 H   0  0  0  0  0  0  0  0  0  0  0  0
  -55.3414  101.3097   22.1322 H   0  0  0  0  0  0  0  0  0  0  0  0
  -57.2216  103.2161   25.3446 H   0  0  0  0  0  0  0  0  0  0  0  0
  -55.6384  102.2415   26.8815 H   0  0  0  0  0  0  0  0  0  0  0  0
  -51.6919   96.5891   27.0590 H   0  0  0  0  0  0  0  0  0  0  0  0
  -51.4169   94.3349   28.9979 H   0  0  0  0  0  0  0  0  0  0  0  0
  -50.2101   95.0297   27.9256 H   0  0  0  0  0  0  0  0  0  0  0  0
  -52.6090   99.8427   24.4224 H   0  0  0  0  0  0  0  0  0  0  0  0
  -54.1454   99.5979   25.2176 H   0  0  0  0  0  0  0  0  0  0  0  0
  -52.8114   98.5174   25.5431 H   0  0  0  0  0  0  0  0  0  0  0  0
  -52.9019  101.4431   26.2458 H   0  0  0  0  0  0  0  0  0  0  0  0
  -51.5734  100.3123   26.5818 H   0  0  0  0  0  0  0  0  0  0  0  0
  -54.2556   99.7407   27.6423 H   0  0  0  0  0  0  0  0  0  0  0  0
  -53.2169  100.9424   28.4313 H   0  0  0  0  0  0  0  0  0  0  0  0
  -52.1230   99.3585   29.4665 H   0  0  0  0  0  0  0  0  0  0  0  0
  -51.7135   98.6396   27.8823 H   0  0  0  0  0  0  0  0  0  0  0  0
  -53.8773   97.8657   29.7671 H   0  0  0  0  0  0  0  0  0  0  0  0
  -53.1209   98.9336   25.2674 H   0  0  0  0  0  0  0  0  0  0  0  0
  -51.7022   94.0456   26.0655 H   0  0  0  0  0  0  0  0  0  0  0  0
  -52.2705   93.0043   27.3976 H   0  0  0  0  0  0  0  0  0  0  0  0
  -50.1374   93.0605   24.7524 H   0  0  0  0  0  0  0  0  0  0  0  0
  -48.2124   91.6009   24.4191 H   0  0  0  0  0  0  0  0  0  0  0  0
  -47.3382   90.3371   26.2610 H   0  0  0  0  0  0  0  0  0  0  0  0
  -48.2819   90.5394   28.4657 H   0  0  0  0  0  0  0  0  0  0  0  0
  -50.1725   92.0183   28.8137 H   0  0  0  0  0  0  0  0  0  0  0  0
  -55.3365   98.5072   26.2763 H   0  0  0  0  0  0  0  0  0  0  0  0
  -52.8229   95.8967   29.6766 H   0  0  0  0  0  0  0  0  0  0  0  0
  -51.1037   98.1448   25.7141 H   0  0  0  0  0  0  0  0  0  0  0  0
  -57.3323  102.6669   21.8668 H   0  0  0  0  0  0  0  0  0  0  0  0
  -54.6724   96.5282   28.1201 H   0  0  0  0  0  0  0  0  0  0  0  0
  1  3  4  0
  2  3  1  0
  1  4  4  0
  4  5  4  0
  5  6  4  0
  6  7  4  0
  3  7  4  0
  8  9  1  0
  8 10  1  0
 11 12  1  0
 12 13  1  0
 13 14  1  0
 15 14  1  0
 15 16  1  0
 17  2  1  0
 17 18  1  0
 10 19  1  0
 19 20  1  0
 20 21  4  0
 21 22  4  0
 22 23  4  0
 23 24  4  0
 24 25  4  0
 20 25  4  0
 16 26  1  0
 17 26  1  0
 15 27  1  0
  8 27  1  0
 18 28  2  0
 18 29  1  0
  5 30  1  0
 16 31  2  0
  9 32  2  0
  9 33  1  0
  1 34  1  0
  2 35  1  0
  2 36  1  0
  4 37  1  0
  6 38  1  0
  7 39  1  0
  8 40  1  6
 10 41  1  0
 10 42  1  0
 11 43  1  0
 11 44  1  0
 11 45  1  0
 12 46  1  0
 12 47  1  0
 13 48  1  0
 13 49  1  0
 14 50  1  0
 14 51  1  0
 15 52  1  1
 17 53  1  6
 19 54  1  0
 19 55  1  0
 21 56  1  0
 22 57  1  0
 23 58  1  0
 24 59  1  0
 25 60  1  0
 26 61  1  0
 27 62  1  0
 29 63  1  0
 30 64  1  0
 33 65  1  0
M  END
