7PT3_3KK_A_702
     RDKit          3D

 54 56  0  0  0  0  0  0  0  0999 V2000
   -6.9315  -11.1965   46.7849 C   0  0  0  0  0  0  0  0  0  0  0  0
   -5.7986  -12.1345   46.4038 C   0  0  1  0  0  0  0  0  0  0  0  0
   -5.6172  -12.0565   44.8875 C   0  0  0  0  0  0  0  0  0  0  0  0
   -4.6504  -11.6600   46.9950 O   0  0  0  0  0  0  0  0  0  0  0  0
   -6.1179  -13.5066   46.7808 C   0  0  0  0  0  0  0  0  0  0  0  0
   -5.3418  -14.3870   46.3572 O   0  0  0  0  0  0  0  0  0  0  0  0
   -7.4702  -14.0868   47.7609 S   0  0  0  0  0  0  0  0  0  0  0  0
   -7.3393  -15.8209   48.1440 C   0  0  0  0  0  0  0  0  0  0  0  0
   -6.4068  -16.5309   47.2196 C   0  0  0  0  0  0  0  0  0  0  0  0
   -7.0602  -16.8562   45.9407 N   0  0  0  0  0  0  0  0  0  0  0  0
   -8.2817  -17.5638   45.8686 C   0  0  0  0  0  0  0  0  0  0  0  0
   -8.7192  -18.3307   46.7585 O   0  0  0  0  0  0  0  0  0  0  0  0
   -9.1538  -17.4149   44.6508 C   0  0  0  0  0  0  0  0  0  0  0  0
  -10.3252  -18.3533   44.8390 C   0  0  0  0  0  0  0  0  0  0  0  0
  -11.3013  -18.2368   43.7968 N   0  0  0  0  0  0  0  0  0  0  0  0
  -12.0434  -17.0451   43.5396 C   0  0  0  0  0  0  0  0  0  0  0  0
  -11.8830  -16.0653   44.3119 O   0  0  0  0  0  0  0  0  0  0  0  0
  -12.9608  -17.0327   42.3744 C   0  0  2  0  0  0  0  0  0  0  0  0
  -12.2568  -16.8307   41.1648 O   0  0  0  0  0  0  0  0  0  0  0  0
  -14.0131  -15.9720   42.4218 C   0  0  2  0  0  0  0  0  0  0  0  0
  -14.7841  -16.0693   41.0963 C   0  0  0  0  0  0  0  0  0  0  0  0
  -13.5026  -14.5736   42.5386 C   0  0  0  0  0  0  0  0  0  0  0  0
  -15.0508  -16.1946   43.5112 C   0  0  0  0  0  0  0  0  0  0  0  0
  -14.5338  -15.9245   44.7616 O   0  0  0  0  0  0  0  0  0  0  0  0
  -15.3242  -16.6647   46.0314 P   0  0  2  0  0  0  0  0  0  0  0  0
  -14.3697  -17.7913   46.8507 O   0  0  0  0  0  0  0  0  0  0  0  0
  -16.6052  -17.3044   45.5261 O   0  0  0  0  0  0  0  0  0  0  0  0
  -15.7691  -15.4918   47.2003 O   0  0  0  0  0  0  0  0  0  0  0  0
  -15.4528  -16.1333   48.7285 P   0  0  2  0  0  0  0  0  0  0  0  0
  -16.2767  -17.4230   48.8107 O   0  0  0  0  0  0  0  0  0  0  0  0
  -16.0446  -14.9835   49.8495 O   0  0  0  0  0  0  0  0  0  0  0  0
  -13.8357  -16.4284   49.0242 O   0  0  0  0  0  0  0  0  0  0  0  0
  -13.0807  -15.2650   49.2391 C   0  0  0  0  0  0  0  0  0  0  0  0
  -12.8321  -15.0085   50.6781 C   0  0  1  0  0  0  0  0  0  0  0  0
  -14.0078  -14.9656   51.4388 O   0  0  0  0  0  0  0  0  0  0  0  0
  -12.0907  -16.1002   51.4131 C   0  0  1  0  0  0  0  0  0  0  0  0
  -10.7538  -16.1882   51.1169 O   0  0  0  0  0  0  0  0  0  0  0  0
  -10.4513  -16.7094   49.5472 P   0  0  1  0  0  0  0  0  0  0  0  0
  -11.3220  -17.9098   49.2057 O   0  0  0  0  0  0  0  0  0  0  0  0
  -10.6655  -15.4248   48.4948 O   0  0  0  0  0  0  0  0  0  0  0  0
   -8.8446  -17.2602   49.3727 O   0  0  0  0  0  0  0  0  0  0  0  0
  -12.2230  -15.5435   52.8437 C   0  0  1  0  0  0  0  0  0  0  0  0
  -11.1850  -14.6018   52.9936 O   0  0  0  0  0  0  0  0  0  0  0  0
  -13.5637  -14.8539   52.7589 C   0  0  2  0  0  0  0  0  0  0  0  0
  -14.4886  -15.5053   53.6466 N   0  0  0  0  0  0  0  0  0  0  0  0
  -15.3169  -16.5048   53.2246 C   0  0  0  0  0  0  0  0  0  0  0  0
  -16.0751  -16.9233   54.2651 N   0  0  0  0  0  0  0  0  0  0  0  0
  -15.7433  -16.2069   55.3418 C   0  0  0  0  0  0  0  0  0  0  0  0
  -14.7521  -15.3243   54.9456 C   0  0  0  0  0  0  0  0  0  0  0  0
  -14.2399  -14.4785   55.8522 N   0  0  0  0  0  0  0  0  0  0  0  0
  -14.7070  -14.5147   57.1194 C   0  0  0  0  0  0  0  0  0  0  0  0
  -15.6775  -15.3786   57.5071 N   0  0  0  0  0  0  0  0  0  0  0  0
  -16.2271  -16.2486   56.6434 C   0  0  0  0  0  0  0  0  0  0  0  0
  -17.2508  -17.1734   57.0075 N   0  0  0  0  0  0  0  0  0  0  0  0
  2  1  1  1
  2  3  1  0
  2  4  1  0
  2  5  1  0
  5  6  2  0
  5  7  1  0
  7  8  1  0
  8  9  1  0
  9 10  1  0
 10 11  1  0
 11 12  2  0
 11 13  1  0
 13 14  1  0
 14 15  1  0
 15 16  1  0
 16 17  2  0
 16 18  1  0
 18 19  1  6
 18 20  1  0
 20 21  1  6
 20 22  1  0
 20 23  1  0
 23 24  1  0
 24 25  1  0
 25 26  1  1
 25 27  2  0
 25 28  1  0
 28 29  1  0
 29 30  2  0
 29 31  1  1
 29 32  1  0
 32 33  1  0
 34 33  1  6
 34 35  1  0
 34 36  1  0
 36 37  1  6
 37 38  1  0
 38 39  2  0
 38 40  1  6
 38 41  1  0
 36 42  1  0
 42 43  1  6
 42 44  1  0
 35 44  1  0
 44 45  1  1
 45 46  1  0
 46 47  2  0
 47 48  1  0
 45 49  1  0
 48 49  2  0
 49 50  1  0
 50 51  2  0
 51 52  1  0
 48 53  1  0
 52 53  2  0
 53 54  1  0
M  END
$$$$
