8BRO_R7E_A_201
     RDKit          3D

 48 50  0  0  0  0  0  0  0  0999 V2000
    6.0198    7.0334    5.2437 N   0  0  0  0  0  0  0  0  0  0  0  0
    8.3899    4.8936    7.7356 C   0  0  1  0  0  0  0  0  0  0  0  0
    8.6544    5.6091    6.3726 C   0  0  1  0  0  0  0  0  0  0  0  0
    8.2612    4.7940    5.1257 C   0  0  0  0  0  0  0  0  0  0  0  0
    6.3749    7.9087    4.1626 C   0  0  0  0  0  0  0  0  0  0  0  0
    7.3695    7.4819    3.1677 C   0  0  0  0  0  0  0  0  0  0  0  0
    9.2545    6.9161    2.1824 C   0  0  0  0  0  0  0  0  0  0  0  0
    7.7074    5.2323   -0.5358 C   0  0  0  0  0  0  0  0  0  0  0  0
    8.2877    5.7100   -2.8401 C   0  0  0  0  0  0  0  0  0  0  0  0
    8.7909    7.3242   -1.1060 C   0  0  0  0  0  0  0  0  0  0  0  0
    6.7193    7.0323    6.5333 C   0  0  2  0  0  0  0  0  0  0  0  0
    8.1298    6.9321    6.3292 O   0  0  0  0  0  0  0  0  0  0  0  0
    7.2033    5.5186    8.4926 C   0  0  2  0  0  0  0  0  0  0  0  0
    6.6553    4.6053    9.4092 O   0  0  0  0  0  0  0  0  0  0  0  0
    6.1295    5.9622    7.4964 C   0  0  1  0  0  0  0  0  0  0  0  0
    4.9958    6.4521    8.1707 O   0  0  0  0  0  0  0  0  0  0  0  0
    8.1703    3.5154    7.5550 O   0  0  0  0  0  0  0  0  0  0  0  0
    5.8489    9.0501    4.0666 O   0  0  0  0  0  0  0  0  0  0  0  0
    7.0825    7.1993    1.9185 O   0  0  0  0  0  0  0  0  0  0  0  0
    8.1886    6.8558    1.2966 C   0  0  0  0  0  0  0  0  0  0  0  0
    8.7233    7.3207    3.3887 C   0  0  0  0  0  0  0  0  0  0  0  0
    8.2341    6.4729   -0.1339 C   0  0  0  0  0  0  0  0  0  0  0  0
    8.8133    6.9428   -2.4499 C   0  0  0  0  0  0  0  0  0  0  0  0
    7.7433    4.8408   -1.8839 C   0  0  0  0  0  0  0  0  0  0  0  0
    7.1437    3.5286   -2.3085 C   0  0  0  0  0  0  0  0  0  0  0  0
    8.1549    2.4784   -2.2517 N   0  0  0  0  0  0  0  0  0  0  0  0
    5.3007    6.2997    5.0591 H   0  0  0  0  0  0  0  0  0  0  0  0
    9.2853    5.0334    8.3881 H   0  0  0  0  0  0  0  0  0  0  0  0
    9.7586    5.7183    6.2972 H   0  0  0  0  0  0  0  0  0  0  0  0
    8.8698    3.8673    5.0647 H   0  0  0  0  0  0  0  0  0  0  0  0
    8.4662    5.3861    4.2089 H   0  0  0  0  0  0  0  0  0  0  0  0
    7.1904    4.5083    5.1426 H   0  0  0  0  0  0  0  0  0  0  0  0
   10.2953    6.6981    1.9887 H   0  0  0  0  0  0  0  0  0  0  0  0
    7.2660    4.5676    0.1978 H   0  0  0  0  0  0  0  0  0  0  0  0
    8.3048    5.4329   -3.8869 H   0  0  0  0  0  0  0  0  0  0  0  0
    9.2067    8.2850   -0.8372 H   0  0  0  0  0  0  0  0  0  0  0  0
    6.5633    8.0299    6.9987 H   0  0  0  0  0  0  0  0  0  0  0  0
    7.5613    6.4223    9.0425 H   0  0  0  0  0  0  0  0  0  0  0  0
    7.3038    4.5302   10.1575 H   0  0  0  0  0  0  0  0  0  0  0  0
    5.8067    5.0738    6.9115 H   0  0  0  0  0  0  0  0  0  0  0  0
    5.2863    7.2044    8.7503 H   0  0  0  0  0  0  0  0  0  0  0  0
    9.0617    3.0970    7.4269 H   0  0  0  0  0  0  0  0  0  0  0  0
    9.2612    7.4788    4.3142 H   0  0  0  0  0  0  0  0  0  0  0  0
    9.2374    7.6069   -3.1922 H   0  0  0  0  0  0  0  0  0  0  0  0
    6.7316    3.6044   -3.3401 H   0  0  0  0  0  0  0  0  0  0  0  0
    6.3000    3.2651   -1.6334 H   0  0  0  0  0  0  0  0  0  0  0  0
    8.8537    2.6564   -3.0098 H   0  0  0  0  0  0  0  0  0  0  0  0
    7.6868    1.5733   -2.4866 H   0  0  0  0  0  0  0  0  0  0  0  0
  2  3  1  0
  3  4  1  0
  1  5  1  0
  5  6  1  0
 11  1  1  0
  3 12  1  0
 11 12  1  0
  2 13  1  0
 13 14  1  0
 13 15  1  0
 11 15  1  0
 15 16  1  0
  2 17  1  0
  5 18  2  0
  6 19  4  0
 19 20  4  0
  7 20  4  0
  6 21  4  0
  7 21  4  0
 20 22  1  0
 10 22  4  0
  8 22  4  0
 10 23  4  0
  9 23  4  0
  8 24  4  0
  9 24  4  0
 24 25  1  0
 25 26  1  0
  1 27  1  0
  2 28  1  6
  3 29  1  1
  4 30  1  0
  4 31  1  0
  4 32  1  0
  7 33  1  0
  8 34  1  0
  9 35  1  0
 10 36  1  0
 11 37  1  6
 13 38  1  6
 14 39  1  0
 15 40  1  1
 16 41  1  0
 17 42  1  0
 21 43  1  0
 23 44  1  0
 25 45  1  0
 25 46  1  0
 26 47  1  0
 26 48  1  0
M  END
