
     RDKit          3D

 11 11  0  0  0  0  0  0  0  0999 V2000
   23.6536   11.5865   34.9146 C   0  0  0  0  0  0  0  0  0  0  0  0
   22.8171   10.7468   35.6650 C   0  0  0  0  0  0  0  0  0  0  0  0
   21.8541    9.9764   35.0163 C   0  0  0  0  0  0  0  0  0  0  0  0
   21.7479   10.0631   33.6219 C   0  0  0  0  0  0  0  0  0  0  0  0
   22.5743   10.8937   32.8728 C   0  0  0  0  0  0  0  0  0  0  0  0
   24.5382   12.7845   36.7528 O   0  0  0  0  0  0  0  0  0  0  0  0
   23.5369   11.6636   33.5226 C   0  0  0  0  0  0  0  0  0  0  0  0
   24.6761   12.4054   35.5964 C   0  0  0  0  0  0  0  0  0  0  0  0
   21.4679    8.3449   36.7017 C   0  0  0  0  0  0  0  0  0  0  0  0
   20.9697    9.1144   35.6118 O   0  0  0  0  0  0  0  0  0  0  0  0
   20.8120    9.3190   32.9563 O   0  0  0  0  0  0  0  0  0  0  0  0
  1  2  4  0
  2  3  4  0
  3  4  4  0
  4  5  4  0
  1  7  4  0
  5  7  4  0
  1  8  1  0
  6  8  2  0
  3 10  1  0
  9 10  1  0
  4 11  1  0
M  END
