7BJJ_TVW_A_301
     RDKit          3D

 10 11  0  0  0  0  0  0  0  0999 V2000
    3.5740   -3.7394   19.1712 C   0  0  0  0  0  0  0  0  0  0  0  0
    2.4673   -3.1761   19.8426 N   0  0  0  0  0  0  0  0  0  0  0  0
    4.5979   -5.3960   17.8864 C   0  0  0  0  0  0  0  0  0  0  0  0
    3.5026   -4.9261   18.4997 N   0  0  0  0  0  0  0  0  0  0  0  0
    5.8963   -3.5386   18.5706 C   0  0  0  0  0  0  0  0  0  0  0  0
    5.7545   -4.7129   17.9281 N   0  0  0  0  0  0  0  0  0  0  0  0
    4.7645   -3.0430   19.2102 C   0  0  0  0  0  0  0  0  0  0  0  0
    6.4557   -1.6425   19.5059 N   0  0  0  0  0  0  0  0  0  0  0  0
    5.1552   -1.8442   19.7900 C   0  0  0  0  0  0  0  0  0  0  0  0
    6.8754   -2.6667   18.7775 N   0  0  0  0  0  0  0  0  0  0  0  0
  1  2  1  0
  1  4  2  0
  3  4  1  0
  5  6  1  0
  3  6  2  0
  1  7  1  0
  5  7  1  0
  8  9  1  0
  7  9  2  0
  8 10  1  0
  5 10  2  0
M  END
$$$$
