1M2Z_DEX_A_301
     RDKit          3D

 28 31  0  0  0  0  0  0  0  0999 V2000
   30.6537   22.9596    1.1769 C   0  0  0  0  0  0  0  0  0  0  0  0
   31.2325   21.7840    1.2261 C   0  0  0  0  0  0  0  0  0  0  0  0
   30.4954   20.6520    1.7662 C   0  0  0  0  0  0  0  0  0  0  0  0
   29.1389   20.9126    2.2268 C   0  0  0  0  0  0  0  0  0  0  0  0
   28.6406   22.1152    2.1432 C   0  0  0  0  0  0  0  0  0  0  0  0
   27.2230   22.4082    2.6256 C   0  0  0  0  0  0  0  0  0  0  0  0
   27.4392   23.2863    3.8387 C   0  0  0  0  0  0  0  0  0  0  0  0
   27.9780   24.5782    3.3230 C   0  0  2  0  0  0  0  0  0  0  0  0
   29.2680   24.4732    2.5428 C   0  0  1  0  0  0  0  0  0  0  0  0
   29.3096   23.3217    1.6019 C   0  0  1  0  0  0  0  0  0  0  0  0
   29.5746   25.7961    1.9482 C   0  0  2  0  0  0  0  0  0  0  0  0
   29.4839   26.9559    2.8761 C   0  0  0  0  0  0  0  0  0  0  0  0
   28.2210   26.9402    3.7236 C   0  0  1  0  0  0  0  0  0  0  0  0
   28.2670   25.5766    4.3778 C   0  0  1  0  0  0  0  0  0  0  0  0
   27.4304   25.6998    5.5659 C   0  0  0  0  0  0  0  0  0  0  0  0
   28.1023   26.9728    6.1468 C   0  0  2  0  0  0  0  0  0  0  0  0
   28.3091   27.8426    4.9192 C   0  0  2  0  0  0  0  0  0  0  0  0
   27.0134   27.2363    2.9243 C   0  0  0  0  0  0  0  0  0  0  0  0
   28.5895   23.6647    0.2720 C   0  0  0  0  0  0  0  0  0  0  0  0
   27.3063   28.9165    5.0015 C   0  0  0  0  0  0  0  0  0  0  0  0
   27.3903   30.2589    4.4240 C   0  0  0  0  0  0  0  0  0  0  0  0
   29.4653   26.5533    6.6358 C   0  0  0  0  0  0  0  0  0  0  0  0
   30.2627   24.2503    3.4981 F   0  0  0  0  0  0  0  0  0  0  0  0
   30.9327   19.4974    1.8613 O   0  0  0  0  0  0  0  0  0  0  0  0
   28.9452   26.0608    0.7308 O   0  0  0  0  0  0  0  0  0  0  0  0
   29.5619   28.5022    4.9320 O   0  0  0  0  0  0  0  0  0  0  0  0
   26.2678   28.6459    5.6308 O   0  0  0  0  0  0  0  0  0  0  0  0
   26.0670   30.7349    4.2386 O   0  0  0  0  0  0  0  0  0  0  0  0
  1  2  2  0
  2  3  1  0
  3  4  1  0
  4  5  2  0
  5  6  1  0
  6  7  1  0
  8  7  1  1
  8  9  1  0
  1 10  1  0
  5 10  1  0
  9 10  1  0
  9 11  1  0
 11 12  1  0
 12 13  1  0
  8 14  1  0
 13 14  1  0
 14 15  1  1
 15 16  1  0
 13 17  1  0
 16 17  1  0
 13 18  1  6
 10 19  1  6
 17 20  1  0
 20 21  1  0
 16 22  1  6
  9 23  1  1
  3 24  2  0
 11 25  1  6
 17 26  1  1
 20 27  2  0
 21 28  1  0
M  END
$$$$
