1M2Z_DEX_A_301
     RDKit          3D

 28 31  0  0  0  0  0  0  0  0999 V2000
   28.1250   26.0199    4.1786 C   0  0  0  0  0  0  0  0  0  0  0  0
   27.9427   24.9053    3.5124 C   0  0  0  0  0  0  0  0  0  0  0  0
   28.4873   24.7844    2.1687 C   0  0  0  0  0  0  0  0  0  0  0  0
   29.2086   25.9370    1.6476 C   0  0  0  0  0  0  0  0  0  0  0  0
   29.3414   27.0092    2.3783 C   0  0  0  0  0  0  0  0  0  0  0  0
   30.0893   28.2284    1.8471 C   0  0  0  0  0  0  0  0  0  0  0  0
   28.9994   29.2651    1.6829 C   0  0  0  0  0  0  0  0  0  0  0  0
   28.5546   29.6191    3.0621 C   0  0  2  0  0  0  0  0  0  0  0  0
   28.0306   28.4658    3.8863 C   0  0  1  0  0  0  0  0  0  0  0  0
   28.8317   27.2193    3.7540 C   0  0  1  0  0  0  0  0  0  0  0  0
   27.8037   28.9358    5.2738 C   0  0  2  0  0  0  0  0  0  0  0  0
   27.0462   30.2096    5.4066 C   0  0  0  0  0  0  0  0  0  0  0  0
   27.5406   31.2949    4.4626 C   0  0  1  0  0  0  0  0  0  0  0  0
   27.4695   30.6257    3.1074 C   0  0  1  0  0  0  0  0  0  0  0  0
   27.4011   31.7221    2.1484 C   0  0  0  0  0  0  0  0  0  0  0  0
   26.2237   32.4872    2.8099 C   0  0  2  0  0  0  0  0  0  0  0  0
   26.5541   32.4124    4.2903 C   0  0  2  0  0  0  0  0  0  0  0  0
   28.8656   31.8147    4.8611 C   0  0  0  0  0  0  0  0  0  0  0  0
   30.0732   27.2557    4.6824 C   0  0  0  0  0  0  0  0  0  0  0  0
   27.0151   33.7552    4.6779 C   0  0  0  0  0  0  0  0  0  0  0  0
   26.6414   34.5142    5.8724 C   0  0  0  0  0  0  0  0  0  0  0  0
   24.9884   31.6536    2.5820 C   0  0  0  0  0  0  0  0  0  0  0  0
   26.7621   28.1872    3.3712 F   0  0  0  0  0  0  0  0  0  0  0  0
   28.3831   23.7848    1.4453 O   0  0  0  0  0  0  0  0  0  0  0  0
   28.9296   28.9184    6.0987 O   0  0  0  0  0  0  0  0  0  0  0  0
   25.4084   32.1689    5.0857 O   0  0  0  0  0  0  0  0  0  0  0  0
   27.8180   34.3017    3.9004 O   0  0  0  0  0  0  0  0  0  0  0  0
   27.5481   35.5976    5.9992 O   0  0  0  0  0  0  0  0  0  0  0  0
  1  2  2  0
  2  3  1  0
  3  4  1  0
  4  5  2  0
  5  6  1  0
  6  7  1  0
  8  7  1  6
  8  9  1  0
  1 10  1  0
  5 10  1  0
  9 10  1  0
  9 11  1  0
 11 12  1  0
 12 13  1  0
  8 14  1  0
 13 14  1  0
 14 15  1  6
 15 16  1  0
 13 17  1  0
 16 17  1  0
 13 18  1  1
 10 19  1  1
 17 20  1  0
 20 21  1  0
 16 22  1  1
  9 23  1  6
  3 24  2  0
 11 25  1  6
 17 26  1  1
 20 27  2  0
 21 28  1  0
M  END
$$$$
