1M2Z_DEX_A_301
     RDKit          3D

 28 31  0  0  0  0  0  0  0  0999 V2000
   34.1513   53.0348    3.4613 C   0  0  0  0  0  0  0  0  0  0  0  0
   35.2397   52.3839    3.7950 C   0  0  0  0  0  0  0  0  0  0  0  0
   36.3557   52.3421    2.8626 C   0  0  0  0  0  0  0  0  0  0  0  0
   36.1783   53.0386    1.5962 C   0  0  0  0  0  0  0  0  0  0  0  0
   35.0597   53.6603    1.3439 C   0  0  0  0  0  0  0  0  0  0  0  0
   34.8539   54.3910    0.0205 C   0  0  0  0  0  0  0  0  0  0  0  0
   33.7947   53.5648   -0.6760 C   0  0  0  0  0  0  0  0  0  0  0  0
   32.5390   53.7590    0.1055 C   0  0  2  0  0  0  0  0  0  0  0  0
   32.6156   53.3548    1.5597 C   0  0  1  0  0  0  0  0  0  0  0  0
   33.8778   53.7644    2.2320 C   0  0  1  0  0  0  0  0  0  0  0  0
   31.3653   53.7732    2.2373 C   0  0  2  0  0  0  0  0  0  0  0  0
   30.1021   53.4087    1.5405 C   0  0  0  0  0  0  0  0  0  0  0  0
   30.1318   53.7268    0.0534 C   0  0  1  0  0  0  0  0  0  0  0  0
   31.3762   53.0099   -0.4231 C   0  0  1  0  0  0  0  0  0  0  0  0
   31.1756   52.8172   -1.8546 C   0  0  0  0  0  0  0  0  0  0  0  0
   29.7689   52.1666   -1.7690 C   0  0  2  0  0  0  0  0  0  0  0  0
   29.0648   53.0078   -0.7187 C   0  0  2  0  0  0  0  0  0  0  0  0
   30.0823   55.1816   -0.2033 C   0  0  0  0  0  0  0  0  0  0  0  0
   33.8054   55.2421    2.6966 C   0  0  0  0  0  0  0  0  0  0  0  0
   28.1030   53.8527   -1.4444 C   0  0  0  0  0  0  0  0  0  0  0  0
   26.7793   54.2841   -0.9927 C   0  0  0  0  0  0  0  0  0  0  0  0
   29.9673   50.7911   -1.1848 C   0  0  0  0  0  0  0  0  0  0  0  0
   32.5936   51.9578    1.5585 F   0  0  0  0  0  0  0  0  0  0  0  0
   37.4319   51.7643    3.0656 O   0  0  0  0  0  0  0  0  0  0  0  0
   31.3444   55.0961    2.6819 O   0  0  0  0  0  0  0  0  0  0  0  0
   28.2805   52.2237    0.1615 O   0  0  0  0  0  0  0  0  0  0  0  0
   28.4630   54.2472   -2.5681 O   0  0  0  0  0  0  0  0  0  0  0  0
   26.3899   55.3930   -1.7870 O   0  0  0  0  0  0  0  0  0  0  0  0
  1  2  2  0
  2  3  1  0
  3  4  1  0
  4  5  2  0
  5  6  1  0
  6  7  1  0
  8  7  1  6
  8  9  1  0
  1 10  1  0
  5 10  1  0
  9 10  1  0
  9 11  1  0
 11 12  1  0
 12 13  1  0
  8 14  1  0
 13 14  1  0
 14 15  1  6
 15 16  1  0
 13 17  1  0
 16 17  1  0
 13 18  1  1
 10 19  1  1
 17 20  1  0
 20 21  1  0
 16 22  1  1
  9 23  1  6
  3 24  2  0
 11 25  1  6
 17 26  1  1
 20 27  2  0
 21 28  1  0
M  END
$$$$
