1M2Z_DEX_A_301
     RDKit          3D

 28 31  0  0  0  0  0  0  0  0999 V2000
   33.0826   31.5175    1.1225 C   0  0  0  0  0  0  0  0  0  0  0  0
   34.2636   31.0588    0.7843 C   0  0  0  0  0  0  0  0  0  0  0  0
   34.9278   31.6051   -0.3892 C   0  0  0  0  0  0  0  0  0  0  0  0
   34.2157   32.6424   -1.1221 C   0  0  0  0  0  0  0  0  0  0  0  0
   33.0410   33.0390   -0.7168 C   0  0  0  0  0  0  0  0  0  0  0  0
   32.2778   34.1210   -1.4748 C   0  0  0  0  0  0  0  0  0  0  0  0
   31.1013   33.3737   -2.0640 C   0  0  0  0  0  0  0  0  0  0  0  0
   30.2379   32.9869   -0.9106 C   0  0  2  0  0  0  0  0  0  0  0  0
   30.9072   32.1255    0.1353 C   0  0  1  0  0  0  0  0  0  0  0  0
   32.2941   32.5498    0.4661 C   0  0  1  0  0  0  0  0  0  0  0  0
   29.9903   31.9800    1.2910 C   0  0  2  0  0  0  0  0  0  0  0  0
   28.5892   31.6051    0.9583 C   0  0  0  0  0  0  0  0  0  0  0  0
   28.0117   32.4242   -0.1857 C   0  0  1  0  0  0  0  0  0  0  0  0
   29.0255   32.2268   -1.2914 C   0  0  1  0  0  0  0  0  0  0  0  0
   28.2994   32.5101   -2.5240 C   0  0  0  0  0  0  0  0  0  0  0  0
   27.0946   31.5671   -2.2622 C   0  0  2  0  0  0  0  0  0  0  0  0
   26.7899   31.7992   -0.7926 C   0  0  2  0  0  0  0  0  0  0  0  0
   27.7490   33.8234    0.2118 C   0  0  0  0  0  0  0  0  0  0  0  0
   32.2896   33.7105    1.4944 C   0  0  0  0  0  0  0  0  0  0  0  0
   25.5567   32.6010   -0.7491 C   0  0  0  0  0  0  0  0  0  0  0  0
   24.4736   32.5157    0.2318 C   0  0  0  0  0  0  0  0  0  0  0  0
   27.6151   30.1586   -2.3968 C   0  0  0  0  0  0  0  0  0  0  0  0
   30.9991   30.8533   -0.4347 F   0  0  0  0  0  0  0  0  0  0  0  0
   36.0408   31.2560   -0.8046 O   0  0  0  0  0  0  0  0  0  0  0  0
   30.0376   33.0191    2.2217 O   0  0  0  0  0  0  0  0  0  0  0  0
   26.4763   30.5979   -0.1119 O   0  0  0  0  0  0  0  0  0  0  0  0
   25.4268   33.4508   -1.6484 O   0  0  0  0  0  0  0  0  0  0  0  0
   23.6967   33.6976    0.1241 O   0  0  0  0  0  0  0  0  0  0  0  0
  1  2  2  0
  2  3  1  0
  3  4  1  0
  4  5  2  0
  5  6  1  0
  6  7  1  0
  8  7  1  6
  8  9  1  0
  1 10  1  0
  5 10  1  0
  9 10  1  0
  9 11  1  0
 11 12  1  0
 12 13  1  0
  8 14  1  0
 13 14  1  0
 14 15  1  6
 15 16  1  0
 13 17  1  0
 16 17  1  0
 13 18  1  1
 10 19  1  1
 17 20  1  0
 20 21  1  0
 16 22  1  1
  9 23  1  6
  3 24  2  0
 11 25  1  6
 17 26  1  1
 20 27  2  0
 21 28  1  0
M  END
$$$$
