1M2Z_DEX_A_301
     RDKit          3D

 28 31  0  0  0  0  0  0  0  0999 V2000
   27.9381   30.2549    2.4862 C   0  0  0  0  0  0  0  0  0  0  0  0
   26.8116   29.7167    2.8874 C   0  0  0  0  0  0  0  0  0  0  0  0
   25.8260   30.5504    3.5584 C   0  0  0  0  0  0  0  0  0  0  0  0
   26.1709   31.9529    3.7435 C   0  0  0  0  0  0  0  0  0  0  0  0
   27.3165   32.4058    3.3149 C   0  0  0  0  0  0  0  0  0  0  0  0
   27.6972   33.8710    3.5045 C   0  0  0  0  0  0  0  0  0  0  0  0
   28.8329   33.8126    4.5027 C   0  0  0  0  0  0  0  0  0  0  0  0
   29.9775   33.1750    3.7896 C   0  0  2  0  0  0  0  0  0  0  0  0
   29.7100   31.7883    3.2516 C   0  0  1  0  0  0  0  0  0  0  0  0
   28.3735   31.6376    2.6156 C   0  0  1  0  0  0  0  0  0  0  0  0
   30.8640   31.3682    2.4214 C   0  0  2  0  0  0  0  0  0  0  0  0
   32.2049   31.5654    3.0357 C   0  0  0  0  0  0  0  0  0  0  0  0
   32.3708   32.9378    3.6701 C   0  0  1  0  0  0  0  0  0  0  0  0
   31.1945   33.0187    4.6185 C   0  0  1  0  0  0  0  0  0  0  0  0
   31.5784   34.0156    5.6112 C   0  0  0  0  0  0  0  0  0  0  0  0
   32.9580   33.4055    5.9774 C   0  0  2  0  0  0  0  0  0  0  0  0
   33.5246   33.0029    4.6271 C   0  0  2  0  0  0  0  0  0  0  0  0
   32.4621   34.0096    2.6563 C   0  0  0  0  0  0  0  0  0  0  0  0
   28.3940   32.1492    1.1519 C   0  0  0  0  0  0  0  0  0  0  0  0
   34.5778   33.9818    4.3137 C   0  0  0  0  0  0  0  0  0  0  0  0
   35.7902   33.7626    3.5235 C   0  0  0  0  0  0  0  0  0  0  0  0
   32.6769   32.1380    6.7434 C   0  0  0  0  0  0  0  0  0  0  0  0
   29.7233   30.9479    4.3676 F   0  0  0  0  0  0  0  0  0  0  0  0
   24.7290   30.1584    3.9782 O   0  0  0  0  0  0  0  0  0  0  0  0
   30.8350   31.8082    1.0971 O   0  0  0  0  0  0  0  0  0  0  0  0
   34.1831   31.7502    4.6718 O   0  0  0  0  0  0  0  0  0  0  0  0
   34.4116   35.1269    4.7709 O   0  0  0  0  0  0  0  0  0  0  0  0
   36.2762   35.0306    3.1138 O   0  0  0  0  0  0  0  0  0  0  0  0
  1  2  2  0
  2  3  1  0
  3  4  1  0
  4  5  2  0
  5  6  1  0
  6  7  1  0
  8  7  1  1
  8  9  1  0
  1 10  1  0
  5 10  1  0
  9 10  1  0
  9 11  1  0
 11 12  1  0
 12 13  1  0
  8 14  1  0
 13 14  1  0
 14 15  1  1
 15 16  1  0
 13 17  1  0
 16 17  1  0
 13 18  1  6
 10 19  1  6
 17 20  1  0
 20 21  1  0
 16 22  1  1
  9 23  1  1
  3 24  2  0
 11 25  1  6
 17 26  1  1
 20 27  2  0
 21 28  1  0
M  END
$$$$
