1M2Z_DEX_A_301
     RDKit          3D

 28 31  0  0  0  0  0  0  0  0999 V2000
   26.9933   24.4403    5.9529 C   0  0  0  0  0  0  0  0  0  0  0  0
   25.7691   24.1638    6.3329 C   0  0  0  0  0  0  0  0  0  0  0  0
   24.6633   24.9268    5.7747 C   0  0  0  0  0  0  0  0  0  0  0  0
   25.0036   25.9682    4.8155 C   0  0  0  0  0  0  0  0  0  0  0  0
   26.2503   26.1786    4.4949 C   0  0  0  0  0  0  0  0  0  0  0  0
   26.6263   27.2686    3.4957 C   0  0  0  0  0  0  0  0  0  0  0  0
   27.3518   28.2890    4.3454 C   0  0  0  0  0  0  0  0  0  0  0  0
   28.6323   27.6459    4.7601 C   0  0  2  0  0  0  0  0  0  0  0  0
   28.4850   26.3584    5.5376 C   0  0  1  0  0  0  0  0  0  0  0  0
   27.4364   25.4491    5.0020 C   0  0  1  0  0  0  0  0  0  0  0  0
   29.8263   25.7529    5.7157 C   0  0  2  0  0  0  0  0  0  0  0  0
   30.8890   26.6733    6.2031 C   0  0  0  0  0  0  0  0  0  0  0  0
   30.9074   28.0025    5.4638 C   0  0  1  0  0  0  0  0  0  0  0  0
   29.4861   28.4979    5.6190 C   0  0  1  0  0  0  0  0  0  0  0  0
   29.5668   29.9414    5.4275 C   0  0  0  0  0  0  0  0  0  0  0  0
   30.7044   30.2106    6.4488 C   0  0  2  0  0  0  0  0  0  0  0  0
   31.6709   29.0669    6.1957 C   0  0  2  0  0  0  0  0  0  0  0  0
   31.3968   27.8584    4.0766 C   0  0  0  0  0  0  0  0  0  0  0  0
   27.9799   24.6132    3.8144 C   0  0  0  0  0  0  0  0  0  0  0  0
   32.8214   29.6491    5.4863 C   0  0  0  0  0  0  0  0  0  0  0  0
   34.2303   29.2745    5.6173 C   0  0  0  0  0  0  0  0  0  0  0  0
   30.1096   30.0022    7.8183 C   0  0  0  0  0  0  0  0  0  0  0  0
   28.0724   26.7418    6.8162 F   0  0  0  0  0  0  0  0  0  0  0  0
   23.4687   24.7568    6.0528 O   0  0  0  0  0  0  0  0  0  0  0  0
   30.2721   24.9717    4.6483 O   0  0  0  0  0  0  0  0  0  0  0  0
   32.2036   28.5371    7.3958 O   0  0  0  0  0  0  0  0  0  0  0  0
   32.5610   30.5604    4.6804 O   0  0  0  0  0  0  0  0  0  0  0  0
   34.9042   29.7040    4.4454 O   0  0  0  0  0  0  0  0  0  0  0  0
  1  2  2  0
  2  3  1  0
  3  4  1  0
  4  5  2  0
  5  6  1  0
  6  7  1  0
  8  7  1  1
  8  9  1  0
  1 10  1  0
  5 10  1  0
  9 10  1  0
  9 11  1  0
 11 12  1  0
 12 13  1  0
  8 14  1  0
 13 14  1  0
 14 15  1  6
 15 16  1  0
 13 17  1  0
 16 17  1  0
 13 18  1  6
 10 19  1  6
 17 20  1  0
 20 21  1  0
 16 22  1  1
  9 23  1  1
  3 24  2  0
 11 25  1  6
 17 26  1  1
 20 27  2  0
 21 28  1  0
M  END
$$$$
