1M2Z_DEX_A_301
     RDKit          3D

 28 31  0  0  0  0  0  0  0  0999 V2000
   18.7803   25.5336   -9.6018 C   0  0  0  0  0  0  0  0  0  0  0  0
   19.5709   25.6624   -8.5636 C   0  0  0  0  0  0  0  0  0  0  0  0
   20.7468   26.5127   -8.6681 C   0  0  0  0  0  0  0  0  0  0  0  0
   20.9679   27.1713   -9.9478 C   0  0  0  0  0  0  0  0  0  0  0  0
   20.1310   26.9857  -10.9309 C   0  0  0  0  0  0  0  0  0  0  0  0
   20.3492   27.6633  -12.2804 C   0  0  0  0  0  0  0  0  0  0  0  0
   20.6773   26.5101  -13.2035 C   0  0  0  0  0  0  0  0  0  0  0  0
   19.4214   25.7162  -13.3355 C   0  0  2  0  0  0  0  0  0  0  0  0
   18.8596   25.1781  -12.0398 C   0  0  1  0  0  0  0  0  0  0  0  0
   18.9074   26.1497  -10.9142 C   0  0  1  0  0  0  0  0  0  0  0  0
   17.5318   24.5766  -12.3092 C   0  0  2  0  0  0  0  0  0  0  0  0
   17.4704   23.6432  -13.4665 C   0  0  0  0  0  0  0  0  0  0  0  0
   18.1612   24.1896  -14.7065 C   0  0  1  0  0  0  0  0  0  0  0  0
   19.5487   24.5235  -14.2039 C   0  0  1  0  0  0  0  0  0  0  0  0
   20.3901   24.5296  -15.3950 C   0  0  0  0  0  0  0  0  0  0  0  0
   19.9674   23.1389  -15.9398 C   0  0  2  0  0  0  0  0  0  0  0  0
   18.4645   23.1270  -15.7217 C   0  0  2  0  0  0  0  0  0  0  0  0
   17.4058   25.3043  -15.3160 C   0  0  0  0  0  0  0  0  0  0  0  0
   17.7055   27.1276  -10.9731 C   0  0  0  0  0  0  0  0  0  0  0  0
   17.8541   23.2999  -17.0495 C   0  0  0  0  0  0  0  0  0  0  0  0
   16.7307   22.5524  -17.6169 C   0  0  0  0  0  0  0  0  0  0  0  0
   20.5651   22.1140  -15.0098 C   0  0  0  0  0  0  0  0  0  0  0  0
   19.6915   24.1120  -11.6887 F   0  0  0  0  0  0  0  0  0  0  0  0
   21.5629   26.7142   -7.7589 O   0  0  0  0  0  0  0  0  0  0  0  0
   16.4629   25.4741  -12.3149 O   0  0  0  0  0  0  0  0  0  0  0  0
   17.9980   21.8729  -15.2586 O   0  0  0  0  0  0  0  0  0  0  0  0
   18.3499   24.1877  -17.7663 O   0  0  0  0  0  0  0  0  0  0  0  0
   16.4143   23.1315  -18.8725 O   0  0  0  0  0  0  0  0  0  0  0  0
  1  2  2  0
  2  3  1  0
  3  4  1  0
  4  5  2  0
  5  6  1  0
  6  7  1  0
  8  7  1  1
  8  9  1  0
  1 10  1  0
  5 10  1  0
  9 10  1  0
  9 11  1  0
 11 12  1  0
 12 13  1  0
  8 14  1  0
 13 14  1  0
 14 15  1  6
 15 16  1  0
 13 17  1  0
 16 17  1  0
 13 18  1  6
 10 19  1  6
 17 20  1  0
 20 21  1  0
 16 22  1  1
  9 23  1  1
  3 24  2  0
 11 25  1  6
 17 26  1  1
 20 27  2  0
 21 28  1  0
M  END
$$$$
