6ZR8_QOZ_A_302
     RDKit          3D

 61 64  0  0  0  0  0  0  0  0999 V2000
   -4.8517    4.1237   15.8746 C   0  0  0  0  0  0  0  0  0  0  0  0
   -5.1564    2.7748   15.7909 C   0  0  0  0  0  0  0  0  0  0  0  0
   -5.9942    2.2076   16.7355 C   0  0  0  0  0  0  0  0  0  0  0  0
   -6.3590    0.4833   16.6941 S   0  0  2  0  0  6  0  0  0  0  0  0
   -7.6662    0.3605   16.1211 O   0  0  0  0  0  0  0  0  0  0  0  0
   -6.1638   -0.0026   18.0293 O   0  0  0  0  0  0  0  0  0  0  0  0
   -6.5550    2.9794   17.7409 C   0  0  0  0  0  0  0  0  0  0  0  0
   -6.2679    4.3297   17.8032 C   0  0  0  0  0  0  0  0  0  0  0  0
   -5.4138    4.9091   16.8721 C   0  0  0  0  0  0  0  0  0  0  0  0
   -5.1275    6.2893   16.9666 N   0  0  0  0  0  0  0  0  0  0  0  0
   -5.9833    7.2933   17.2583 C   0  0  0  0  0  0  0  0  0  0  0  0
   -6.8360    7.2387   18.1375 O   0  0  0  0  0  0  0  0  0  0  0  0
   -5.8415    8.4881   16.3301 C   0  0  0  0  0  0  0  0  0  0  0  0
   -5.0714    8.2074   15.1180 N   0  0  0  0  0  0  0  0  0  0  0  0
   -3.6790    7.8974   15.4413 C   0  0  0  0  0  0  0  0  0  0  0  0
   -2.9285    7.4971   14.1931 C   0  0  0  0  0  0  0  0  0  0  0  0
   -5.0730    9.3478   14.2006 C   0  0  0  0  0  0  0  0  0  0  0  0
   -4.3548    8.9862   12.9212 C   0  0  0  0  0  0  0  0  0  0  0  0
   -2.9736    8.5530   13.1744 N   0  0  0  0  0  0  0  0  0  0  0  0
   -2.3392    8.0891   11.9205 C   0  0  1  0  0  0  0  0  0  0  0  0
   -2.2020    9.2305   10.9208 C   0  0  0  0  0  0  0  0  0  0  0  0
   -1.3580   10.3083   11.1586 C   0  0  0  0  0  0  0  0  0  0  0  0
   -1.2347   11.3224   10.2218 C   0  0  0  0  0  0  0  0  0  0  0  0
   -1.9734   11.2890    9.0578 C   0  0  0  0  0  0  0  0  0  0  0  0
   -2.8370   10.2400    8.8248 C   0  0  0  0  0  0  0  0  0  0  0  0
   -2.9478    9.2161    9.7513 C   0  0  0  0  0  0  0  0  0  0  0  0
   -0.9969    7.4249   12.2043 C   0  0  0  0  0  0  0  0  0  0  0  0
    0.1813    8.1560   12.1326 C   0  0  0  0  0  0  0  0  0  0  0  0
    1.3921    7.5691   12.4626 C   0  0  0  0  0  0  0  0  0  0  0  0
    1.4336    6.2588   12.8944 C   0  0  0  0  0  0  0  0  0  0  0  0
    0.2708    5.5210   12.9710 C   0  0  0  0  0  0  0  0  0  0  0  0
   -0.9367    6.0995   12.6177 C   0  0  0  0  0  0  0  0  0  0  0  0
   -5.3018   -0.2291   15.7197 N   0  0  0  0  0  0  0  0  0  0  0  0
   -4.2036    4.5469   15.1921 H   0  0  0  0  0  0  0  0  0  0  0  0
   -4.7622    2.1982   15.0312 H   0  0  0  0  0  0  0  0  0  0  0  0
   -7.1824    2.5488   18.4379 H   0  0  0  0  0  0  0  0  0  0  0  0
   -6.6896    4.9107   18.5445 H   0  0  0  0  0  0  0  0  0  0  0  0
   -4.1931    6.5507   16.8000 H   0  0  0  0  0  0  0  0  0  0  0  0
   -6.8206    8.8083   16.0408 H   0  0  0  0  0  0  0  0  0  0  0  0
   -5.3069    9.2407   16.8711 H   0  0  0  0  0  0  0  0  0  0  0  0
   -3.2154    8.7610   15.8704 H   0  0  0  0  0  0  0  0  0  0  0  0
   -3.6556    7.0852   16.1375 H   0  0  0  0  0  0  0  0  0  0  0  0
   -1.9076    7.3043   14.4485 H   0  0  0  0  0  0  0  0  0  0  0  0
   -3.3929    6.6219   13.7892 H   0  0  0  0  0  0  0  0  0  0  0  0
   -6.0832    9.6190   13.9749 H   0  0  0  0  0  0  0  0  0  0  0  0
   -4.5700   10.1707   14.6640 H   0  0  0  0  0  0  0  0  0  0  0  0
   -4.8845    8.1909   12.4396 H   0  0  0  0  0  0  0  0  0  0  0  0
   -4.3218    9.8573   12.3007 H   0  0  0  0  0  0  0  0  0  0  0  0
   -2.9760    7.3523   11.4771 H   0  0  0  0  0  0  0  0  0  0  0  0
   -0.8198   10.3541   12.0380 H   0  0  0  0  0  0  0  0  0  0  0  0
   -0.5867   12.1064   10.3963 H   0  0  0  0  0  0  0  0  0  0  0  0
   -1.8800   12.0467    8.3634 H   0  0  0  0  0  0  0  0  0  0  0  0
   -3.4007   10.2175    7.9606 H   0  0  0  0  0  0  0  0  0  0  0  0
   -3.5938    8.4321    9.5690 H   0  0  0  0  0  0  0  0  0  0  0  0
    0.1550    9.1428   11.8317 H   0  0  0  0  0  0  0  0  0  0  0  0
    2.2655    8.1133   12.3854 H   0  0  0  0  0  0  0  0  0  0  0  0
    2.3346    5.8312   13.1599 H   0  0  0  0  0  0  0  0  0  0  0  0
    0.3006    4.5403   13.2909 H   0  0  0  0  0  0  0  0  0  0  0  0
   -1.8026    5.5396   12.6618 H   0  0  0  0  0  0  0  0  0  0  0  0
   -5.4342    0.1114   14.7673 H   0  0  0  0  0  0  0  0  0  0  0  0
   -4.3544   -0.0127   16.0296 H   0  0  0  0  0  0  0  0  0  0  0  0
  1  2  4  0
  2  3  4  0
  3  4  1  0
  4  5  2  0
  4  6  2  0
  3  7  4  0
  7  8  4  0
  8  9  4  0
  1  9  4  0
  9 10  1  0
 10 11  1  0
 11 12  2  0
 11 13  1  0
 13 14  1  0
 14 15  1  0
 15 16  1  0
 14 17  1  0
 17 18  1  0
 16 19  1  0
 18 19  1  0
 19 20  1  0
 20 21  1  0
 21 22  4  0
 22 23  4  0
 23 24  4  0
 24 25  4  0
 21 26  4  0
 25 26  4  0
 20 27  1  0
 27 28  4  0
 28 29  4  0
 29 30  4  0
 30 31  4  0
 31 32  4  0
 27 32  4  0
  4 33  1  1
  1 34  1  0
  2 35  1  0
  7 36  1  0
  8 37  1  0
 10 38  1  0
 13 39  1  0
 13 40  1  0
 15 41  1  0
 15 42  1  0
 16 43  1  0
 16 44  1  0
 17 45  1  0
 17 46  1  0
 18 47  1  0
 18 48  1  0
 20 49  1  1
 22 50  1  0
 23 51  1  0
 24 52  1  0
 25 53  1  0
 26 54  1  0
 28 55  1  0
 29 56  1  0
 30 57  1  0
 31 58  1  0
 32 59  1  0
 33 60  1  0
 33 61  1  0
M  END
