
     RDKit          3D

 30 34  0  0  0  0  0  0  0  0999 V2000
   16.0667  155.1449   27.5246 C   0  0  1  0  0  0  0  0  0  0  0  0
   15.3281  154.2048   26.5881 C   0  0  0  0  0  0  0  0  0  0  0  0
   15.0298  152.8020   27.0929 C   0  0  2  0  0  0  0  0  0  0  0  0
   16.1534  152.2987   28.0400 C   0  0  0  0  0  0  0  0  0  0  0  0
   16.3662  153.2611   29.2235 C   0  0  0  0  0  0  0  0  0  0  0  0
   16.7435  154.6780   28.7882 C   0  0  1  0  0  0  0  0  0  0  0  0
   14.4822  150.3234   26.4016 C   0  0  0  0  0  0  0  0  0  0  0  0
   14.0971  149.3861   25.5050 C   0  0  0  0  0  0  0  0  0  0  0  0
   13.9639  149.7955   24.0814 C   0  0  0  0  0  0  0  0  0  0  0  0
   14.5110  152.0573   24.7344 C   0  0  0  0  0  0  0  0  0  0  0  0
   14.6927  151.7299   26.0313 C   0  0  0  0  0  0  0  0  0  0  0  0
   13.8087  147.9972   25.9829 C   0  0  0  0  0  0  0  0  0  0  0  0
   11.2000  143.6884   25.3410 C   0  0  0  0  0  0  0  0  0  0  0  0
   10.5458  144.0437   26.6803 C   0  0  0  0  0  0  0  0  0  0  0  0
   10.1204  145.5054   26.7278 C   0  0  0  0  0  0  0  0  0  0  0  0
   11.3033  146.4582   26.5500 C   0  0  0  0  0  0  0  0  0  0  0  0
   12.4446  145.8602   25.7074 C   0  0  1  0  0  0  0  0  0  0  0  0
   11.8543  144.8973   24.6463 C   0  0  1  0  0  0  0  0  0  0  0  0
   13.3220  146.9305   25.0085 C   0  0  2  0  0  0  0  0  0  0  0  0
   14.5058  146.2590   24.2572 C   0  0  2  0  0  0  0  0  0  0  0  0
   12.8516  144.4739   23.5978 C   0  0  0  0  0  0  0  0  0  0  0  0
   14.0368  145.0790   23.4305 C   0  0  0  0  0  0  0  0  0  0  0  0
   15.6602  145.7959   25.1643 C   0  0  0  0  0  0  0  0  0  0  0  0
   14.1733  151.1232   23.8060 N   0  0  0  0  0  0  0  0  0  0  0  0
   13.7075  149.0094   23.1790 O   0  0  0  0  0  0  0  0  0  0  0  0
   14.6527  150.0625   27.7468 O   0  0  0  0  0  0  0  0  0  0  0  0
   13.9082  147.7519   27.1928 O   0  0  0  0  0  0  0  0  0  0  0  0
   16.6885  154.5843   26.3507 O   0  0  0  0  0  0  0  0  0  0  0  0
   18.1563  154.7556   28.6078 O   0  0  0  0  0  0  0  0  0  0  0  0
   13.8600  152.9511   27.9442 O   0  0  0  0  0  0  0  0  0  0  0  0
  1  2  1  0
  2  3  1  0
  3  4  1  0
  4  5  1  0
  5  6  1  0
  1  6  1  0
  7  8  4  0
  8  9  4  0
 10 11  4  0
  7 11  4  0
  3 11  1  0
  8 12  1  0
 13 14  1  0
 14 15  1  0
 15 16  1  0
 17 16  1  6
 18 13  1  1
 17 18  1  0
 19 12  1  1
 17 19  1  0
 19 20  1  0
 18 21  1  0
 20 22  1  0
 21 22  2  0
 20 23  1  1
  9 24  4  0
 10 24  4  0
  9 25  2  0
  7 26  1  0
 12 27  2  0
  2 28  1  0
  1 28  1  6
  6 29  1  6
  3 30  1  1
M  END
