7CD9_FVR_A_501
     RDKit          3D

 62 66  0  0  0  0  0  0  0  0999 V2000
   17.7753    3.4180   17.0009 C   0  0  0  0  0  0  0  0  0  0  0  0
   19.0505    4.1544   16.4943 C   0  0  2  0  0  0  0  0  0  0  0  0
   18.7132    5.0898   15.4276 C   0  0  0  0  0  0  0  0  0  0  0  0
   20.5374    3.0424   14.7441 C   0  0  0  0  0  0  0  0  0  0  0  0
   20.2478    3.4735   12.4596 C   0  0  0  0  0  0  0  0  0  0  0  0
   21.5841    3.1068   12.3004 C   0  0  0  0  0  0  0  0  0  0  0  0
   22.3244    2.7064   13.3777 C   0  0  0  0  0  0  0  0  0  0  0  0
   23.6107    2.3523   12.9332 C   0  0  0  0  0  0  0  0  0  0  0  0
   16.3763    9.0832   13.1348 C   0  0  0  0  0  0  0  0  0  0  0  0
   17.4182    8.2395   12.7705 C   0  0  0  0  0  0  0  0  0  0  0  0
   17.8580    7.2403   13.6325 C   0  0  0  0  0  0  0  0  0  0  0  0
   17.3308    7.1629   14.9053 C   0  0  0  0  0  0  0  0  0  0  0  0
   16.2908    7.9923   15.2761 C   0  0  0  0  0  0  0  0  0  0  0  0
   15.8524    8.9852   14.3965 C   0  0  0  0  0  0  0  0  0  0  0  0
   17.7465    6.0704   15.9544 C   0  0  1  0  0  0  0  0  0  0  0  0
   16.4704    5.3133   16.4061 C   0  0  0  0  0  0  0  0  0  0  0  0
   23.5790    2.5817   11.5698 C   0  0  0  0  0  0  0  0  0  0  0  0
   18.3705    3.7881   13.9205 C   0  0  0  0  0  0  0  0  0  0  0  0
   15.6901    3.7180   17.7475 C   0  0  0  0  0  0  0  0  0  0  0  0
   16.6312   10.4737   11.1482 C   0  0  0  0  0  0  0  0  0  0  0  0
   16.7129    9.2522   10.2170 C   0  0  0  0  0  0  0  0  0  0  0  0
   17.1934    9.3912    8.9294 C   0  0  0  0  0  0  0  0  0  0  0  0
   17.2639    8.3037    8.0722 C   0  0  0  0  0  0  0  0  0  0  0  0
   16.8671    7.0567    8.5205 C   0  0  0  0  0  0  0  0  0  0  0  0
   16.3983    6.9117    9.8026 C   0  0  0  0  0  0  0  0  0  0  0  0
   16.3106    8.0106   10.6382 C   0  0  0  0  0  0  0  0  0  0  0  0
   16.7680    4.3410   17.4412 N   0  0  0  0  0  0  0  0  0  0  0  0
   19.9956    3.0463   16.0686 N   0  0  0  0  0  0  0  0  0  0  0  0
   19.7756    3.4465   13.7099 N   0  0  0  0  0  4  0  0  0  0  0  0
   21.7965    2.6614   14.6190 N   0  0  0  0  0  0  0  0  0  0  0  0
   22.3923    3.0371   11.1920 N   0  0  0  0  0  4  0  0  0  0  0  0
   19.5400    3.8781   11.5611 O   0  0  0  0  0  0  0  0  0  0  0  0
   15.8815   10.1221   12.2992 O   0  0  0  0  0  0  0  0  0  0  0  0
   17.3777    2.8252   16.2038 H   0  0  0  0  0  0  0  0  0  0  0  0
   18.0527    2.8055   17.8333 H   0  0  0  0  0  0  0  0  0  0  0  0
   19.5147    4.7648   17.2406 H   0  0  0  0  0  0  0  0  0  0  0  0
   19.5967    5.5952   15.0978 H   0  0  0  0  0  0  0  0  0  0  0  0
   18.2871    4.5634   14.5992 H   0  0  0  0  0  0  0  0  0  0  0  0
   24.4002    2.0005   13.4971 H   0  0  0  0  0  0  0  0  0  0  0  0
   17.8708    8.3554   11.8503 H   0  0  0  0  0  0  0  0  0  0  0  0
   18.5723    6.5628   13.3228 H   0  0  0  0  0  0  0  0  0  0  0  0
   15.8400    7.8793   16.1976 H   0  0  0  0  0  0  0  0  0  0  0  0
   15.1259    9.6521   14.7007 H   0  0  0  0  0  0  0  0  0  0  0  0
   18.2245    6.5769   16.7668 H   0  0  0  0  0  0  0  0  0  0  0  0
   15.7629    6.0203   16.7861 H   0  0  0  0  0  0  0  0  0  0  0  0
   16.0718    4.7927   15.5606 H   0  0  0  0  0  0  0  0  0  0  0  0
   24.3733    2.4201   10.9312 H   0  0  0  0  0  0  0  0  0  0  0  0
   18.1401    3.7229   14.9634 H   0  0  0  0  0  0  0  0  0  0  0  0
   18.1905    4.7854   13.5771 H   0  0  0  0  0  0  0  0  0  0  0  0
   17.7521    3.1060   13.3754 H   0  0  0  0  0  0  0  0  0  0  0  0
   15.8990    2.9979   18.5109 H   0  0  0  0  0  0  0  0  0  0  0  0
   14.9636    4.4170   18.1058 H   0  0  0  0  0  0  0  0  0  0  0  0
   15.3081    3.2190   16.8814 H   0  0  0  0  0  0  0  0  0  0  0  0
   17.6172   10.7711   11.4384 H   0  0  0  0  0  0  0  0  0  0  0  0
   16.1566   11.2869   10.6400 H   0  0  0  0  0  0  0  0  0  0  0  0
   17.5047   10.3185    8.6006 H   0  0  0  0  0  0  0  0  0  0  0  0
   17.6097    8.4236    7.1073 H   0  0  0  0  0  0  0  0  0  0  0  0
   16.9232    6.2387    7.8937 H   0  0  0  0  0  0  0  0  0  0  0  0
   16.1107    5.9811   10.1437 H   0  0  0  0  0  0  0  0  0  0  0  0
   15.9368    7.8944   11.5931 H   0  0  0  0  0  0  0  0  0  0  0  0
   20.2355    2.3319   16.7020 H   0  0  0  0  0  0  0  0  0  0  0  0
   22.1346    3.2830   10.2742 H   0  0  0  0  0  0  0  0  0  0  0  0
  1  2  1  0
  2  3  1  0
  5  6  4  0
  6  7  4  0
  7  8  4  0
  9 10  4  0
 10 11  4  0
 11 12  4  0
 12 13  4  0
 13 14  4  0
  9 14  4  0
  3 15  1  0
 15 12  1  0
 15 16  1  0
  8 17  4  0
 20 21  1  0
 21 22  4  0
 22 23  4  0
 23 24  4  0
 24 25  4  0
 21 26  4  0
 25 26  4  0
 19 27  1  0
  1 27  1  0
 16 27  1  0
  2 28  1  0
  4 28  1  0
  4 29  4  0
  5 29  4  0
 18 29  1  0
  7 30  4  0
  4 30  4  0
 17 31  4  0
  6 31  4  0
  5 32  2  0
  9 33  1  0
 20 33  1  0
  1 34  1  0
  1 35  1  0
  2 36  1  6
  3 37  1  0
  3 38  1  0
  8 39  1  0
 10 40  1  0
 11 41  1  0
 13 42  1  0
 14 43  1  0
 15 44  1  6
 16 45  1  0
 16 46  1  0
 17 47  1  0
 18 48  1  0
 18 49  1  0
 18 50  1  0
 19 51  1  0
 19 52  1  0
 19 53  1  0
 20 54  1  0
 20 55  1  0
 22 56  1  0
 23 57  1  0
 24 58  1  0
 25 59  1  0
 26 60  1  0
 28 61  1  0
 31 62  1  0
M  CHG  2  29   1  31   1
M  END
