7OFF_VCB_A_712
     RDKit          3D

 27 30  0  0  0  0  0  0  0  0999 V2000
   37.0265  -27.0632   14.0975 C   0  0  0  0  0  0  0  0  0  0  0  0
   37.5203  -20.9177   21.7444 C   0  0  0  0  0  0  0  0  0  0  0  0
   36.2338  -21.0965   21.3167 C   0  0  0  0  0  0  0  0  0  0  0  0
   35.7416  -22.3806   21.0819 C   0  0  0  0  0  0  0  0  0  0  0  0
   36.1173  -25.7204   22.2429 C   0  0  0  0  0  0  0  0  0  0  0  0
   38.3020  -26.5608   18.0297 C   0  0  0  0  0  0  0  0  0  0  0  0
   39.2102  -27.1682   17.1850 C   0  0  0  0  0  0  0  0  0  0  0  0
   38.8478  -27.3655   15.8579 C   0  0  0  0  0  0  0  0  0  0  0  0
   35.4933  -26.0410   15.5203 C   0  0  0  0  0  0  0  0  0  0  0  0
   34.3036  -25.4567   15.8655 C   0  0  0  0  0  0  0  0  0  0  0  0
   33.3406  -25.3180   14.8837 C   0  0  0  0  0  0  0  0  0  0  0  0
   37.6019  -26.9493   15.4372 C   0  0  0  0  0  0  0  0  0  0  0  0
   33.5428  -25.7456   13.5898 C   0  0  0  0  0  0  0  0  0  0  0  0
   34.7255  -26.3252   13.2544 C   0  0  0  0  0  0  0  0  0  0  0  0
   35.6818  -26.4606   14.2366 C   0  0  0  0  0  0  0  0  0  0  0  0
   36.6912  -26.3402   16.2860 C   0  0  0  0  0  0  0  0  0  0  0  0
   37.0418  -26.1420   17.5964 C   0  0  0  0  0  0  0  0  0  0  0  0
   36.2014  -25.5194   18.5993 C   0  0  0  0  0  0  0  0  0  0  0  0
   36.0140  -24.8884   21.0169 C   0  0  1  0  0  0  0  0  0  0  0  0
   36.5171  -23.5063   21.2678 C   0  0  0  0  0  0  0  0  0  0  0  0
   37.8095  -23.3002   21.6990 C   0  0  0  0  0  0  0  0  0  0  0  0
   38.3275  -22.0312   21.9411 C   0  0  0  0  0  0  0  0  0  0  0  0
   36.7050  -25.5469   19.9440 N   0  0  0  0  0  0  0  0  0  0  0  0
   37.5267  -27.5492   13.0618 O   0  0  0  0  0  0  0  0  0  0  0  0
   35.0566  -25.6334   23.1656 O   0  0  0  0  0  0  0  0  0  0  0  0
   37.0911  -26.4848   22.4887 O   0  0  0  0  0  0  0  0  0  0  0  0
   35.1078  -24.9688   18.4203 O   0  0  0  0  0  0  0  0  0  0  0  0
  2  3  2  0
  3  4  1  0
  6  7  2  0
  7  8  1  0
  9 10  2  0
 10 11  1  0
  1 12  1  0
  8 12  2  0
 11 13  2  0
 13 14  1  0
 14 15  2  0
  9 15  1  0
  1 15  1  0
  9 16  1  0
 12 16  1  0
 16 17  2  0
  6 17  1  0
 17 18  1  0
  5 19  1  0
  4 20  2  0
 19 20  1  0
 20 21  1  0
  2 22  1  0
 21 22  2  0
 19 23  1  6
 18 23  1  0
  1 24  2  0
  5 25  1  0
  5 26  2  0
 18 27  2  0
M  END
$$$$
