7OKC_VFE_A_1001
     RDKit          3D

 29 31  0  0  0  0  0  0  0  0999 V2000
   32.6165    6.3988   -0.3438 C   0  0  0  0  0  0  0  0  0  0  0  0
   33.9957    6.2530   -0.3969 C   0  0  0  0  0  0  0  0  0  0  0  0
   28.9257   11.2442    3.6123 C   0  0  0  0  0  0  0  0  0  0  0  0
   30.2557   12.1786    5.3039 C   0  0  0  0  0  0  0  0  0  0  0  0
   28.1304   12.3831    3.5890 C   0  0  0  0  0  0  0  0  0  0  0  0
   29.4618   13.3166    5.2814 C   0  0  0  0  0  0  0  0  0  0  0  0
   32.0336    7.6234   -0.1430 C   0  0  0  0  0  0  0  0  0  0  0  0
   34.7465    7.3846   -0.2402 C   0  0  0  0  0  0  0  0  0  0  0  0
   27.0269   16.6161    5.1873 C   0  0  0  0  0  0  0  0  0  0  0  0
   26.6154   15.0573    3.7387 C   0  0  0  0  0  0  0  0  0  0  0  0
   30.0016   11.0962    4.4540 C   0  0  0  0  0  0  0  0  0  0  0  0
   28.3922   13.4374    4.4286 C   0  0  0  0  0  0  0  0  0  0  0  0
   32.7792    8.7634    0.0155 C   0  0  0  0  0  0  0  0  0  0  0  0
   34.1575    8.6377   -0.0348 C   0  0  0  0  0  0  0  0  0  0  0  0
   31.4683    6.6957    4.0015 C   0  0  0  0  0  0  0  0  0  0  0  0
   30.5332    9.1429    2.0974 C   0  0  0  0  0  0  0  0  0  0  0  0
   32.7302    4.6411    4.4208 C   0  0  0  0  0  0  0  0  0  0  0  0
   30.8670    9.8980    4.5014 C   0  0  0  0  0  0  0  0  0  0  0  0
   30.2524    7.5417    3.9206 C   0  0  0  0  0  0  0  0  0  0  0  0
   30.7134   10.4171    1.4130 C   0  0  0  0  0  0  0  0  0  0  0  0
   26.2174   16.2896    4.1637 N   0  0  0  0  0  0  0  0  0  0  0  0
   27.8764   15.5991    5.3554 N   0  0  0  0  0  0  0  0  0  0  0  0
   27.6347   14.6284    4.4678 N   0  0  0  0  0  0  0  0  0  0  0  0
   31.4453    5.3119    4.3144 N   0  0  0  0  0  0  0  0  0  0  0  0
   30.5660    8.9163    3.4944 N   0  0  0  0  0  0  0  0  0  0  0  0
   32.6145    7.1993    3.7854 O   0  0  0  0  0  0  0  0  0  0  0  0
   30.3196    8.1030    1.3842 O   0  0  0  0  0  0  0  0  0  0  0  0
   32.1113   10.3817    0.2937 S   0  0  0  0  0  0  0  0  0  0  0  0
   35.1840   10.0495    0.1581 Cl  0  0  0  0  0  0  0  0  0  0  0  0
  1  2  2  0
  3  5  2  0
  4  6  1  0
  1  7  1  0
  2  8  1  0
  3 11  1  0
  4 11  2  0
  5 12  1  0
  6 12  2  0
  7 13  2  0
  8 14  2  0
 13 14  1  0
 11 18  1  0
 15 19  1  0
 16 20  1  0
  9 21  1  0
 10 21  2  0
  9 22  2  0
 22 23  1  0
 10 23  1  0
 12 23  1  0
 17 24  1  0
 15 24  1  0
 19 25  1  0
 18 25  1  0
 16 25  1  0
 15 26  2  0
 16 27  2  0
 20 28  1  0
 13 28  1  0
 14 29  1  0
M  END
$$$$
