1R1H_BIR_A_2001
     RDKit          3D

 29 30  0  0  0  0  0  0  0  0999 V2000
   23.5263   40.9172   38.2381 C   0  0  0  0  0  0  0  0  0  0  0  0
   24.5133   41.8935   37.5876 C   0  0  2  0  0  0  0  0  0  0  0  0
   23.9700   43.2444   37.6376 N   0  0  0  0  0  0  0  0  0  0  0  0
   24.8542   41.3653   35.9691 P   0  0  1  0  0  0  0  0  0  0  0  0
   25.8443   40.2609   36.1651 O   0  0  0  0  0  0  0  0  0  0  0  0
   23.5796   41.0346   35.2492 O   0  0  0  0  0  0  0  0  0  0  0  0
   25.6479   42.6707   35.1490 C   0  0  0  0  0  0  0  0  0  0  0  0
   26.4868   42.2504   33.9333 C   0  0  2  0  0  0  0  0  0  0  0  0
   27.9612   42.3550   34.2273 C   0  0  0  0  0  0  0  0  0  0  0  0
   28.7840   42.4173   33.3271 O   0  0  0  0  0  0  0  0  0  0  0  0
   28.3417   42.3555   35.4980 N   0  0  0  0  0  0  0  0  0  0  0  0
   29.7090   41.9656   35.8001 C   0  0  1  0  0  0  0  0  0  0  0  0
   30.6191   43.1914   35.8148 C   0  0  0  0  0  0  0  0  0  0  0  0
   29.7867   41.2735   37.1160 C   0  0  0  0  0  0  0  0  0  0  0  0
   28.8416   41.3513   37.9042 O   0  0  0  0  0  0  0  0  0  0  0  0
   30.7920   40.6337   37.3834 O   0  0  0  0  0  0  0  0  0  0  0  0
   26.1177   43.1394   32.7363 C   0  0  0  0  0  0  0  0  0  0  0  0
   27.0361   42.9027   31.5715 C   0  0  0  0  0  0  0  0  0  0  0  0
   27.9672   43.8719   31.2052 C   0  0  0  0  0  0  0  0  0  0  0  0
   28.8299   43.6477   30.1374 C   0  0  0  0  0  0  0  0  0  0  0  0
   28.7789   42.4455   29.4203 C   0  0  0  0  0  0  0  0  0  0  0  0
   27.8369   41.4794   29.7920 C   0  0  0  0  0  0  0  0  0  0  0  0
   26.9731   41.7071   30.8570 C   0  0  0  0  0  0  0  0  0  0  0  0
   29.7011   42.1976   28.3058 C   0  0  0  0  0  0  0  0  0  0  0  0
   30.2865   40.9368   28.1357 C   0  0  0  0  0  0  0  0  0  0  0  0
   31.1657   40.6992   27.0826 C   0  0  0  0  0  0  0  0  0  0  0  0
   31.4684   41.7186   26.1831 C   0  0  0  0  0  0  0  0  0  0  0  0
   30.8908   42.9767   26.3422 C   0  0  0  0  0  0  0  0  0  0  0  0
   30.0154   43.2148   27.3969 C   0  0  0  0  0  0  0  0  0  0  0  0
  2  1  1  6
  2  3  1  0
  2  4  1  0
  4  5  2  0
  4  6  1  6
  4  7  1  0
  8  7  1  1
  8  9  1  0
  9 10  2  0
  9 11  1  0
 11 12  1  0
 12 13  1  1
 12 14  1  0
 14 15  1  0
 14 16  2  0
  8 17  1  0
 17 18  1  0
 18 19  2  0
 19 20  1  0
 20 21  2  0
 21 22  1  0
 18 23  1  0
 22 23  2  0
 21 24  1  0
 24 25  2  0
 25 26  1  0
 26 27  2  0
 27 28  1  0
 24 29  1  0
 28 29  2  0
M  END
