1YVF_PH7_A_800
     RDKit          3D

 28 30  0  0  0  0  0  0  0  0999 V2000
    8.6530   52.8221   70.7138 C   0  0  0  0  0  0  0  0  0  0  0  0
    9.7594   52.4642   70.1141 C   0  0  0  0  0  0  0  0  0  0  0  0
   10.0408   52.5801   68.7316 N   0  0  0  0  0  0  0  0  0  0  0  0
    9.6592   53.7888   68.0917 C   0  0  0  0  0  0  0  0  0  0  0  0
    9.2225   54.7490   68.8090 O   0  0  0  0  0  0  0  0  0  0  0  0
    7.5175   53.4903   70.1227 C   0  0  0  0  0  0  0  0  0  0  0  0
    6.9765   54.6761   70.5329 C   0  0  0  0  0  0  0  0  0  0  0  0
    5.2784   54.6075   68.8207 C   0  0  0  0  0  0  0  0  0  0  0  0
    6.9054   52.8694   69.0339 C   0  0  0  0  0  0  0  0  0  0  0  0
    5.8173   53.4127   68.4017 C   0  0  0  0  0  0  0  0  0  0  0  0
    4.3183   56.3189   67.4532 C   0  0  0  0  0  0  0  0  0  0  0  0
    3.2390   56.6437   66.6172 C   0  0  0  0  0  0  0  0  0  0  0  0
    3.2747   57.7619   65.8067 C   0  0  0  0  0  0  0  0  0  0  0  0
    4.3601   58.6096   65.7760 C   0  0  0  0  0  0  0  0  0  0  0  0
    5.4417   58.2967   66.6051 C   0  0  0  0  0  0  0  0  0  0  0  0
    5.3856   57.1663   67.4133 C   0  0  0  0  0  0  0  0  0  0  0  0
   10.8423   51.8806   70.9351 C   0  0  0  0  0  0  0  0  0  0  0  0
   11.9171   51.2061   70.3693 O   0  0  0  0  0  0  0  0  0  0  0  0
   10.8434   51.9676   72.1928 O   0  0  0  0  0  0  0  0  0  0  0  0
    9.7312   54.0169   66.6623 C   0  0  0  0  0  0  0  0  0  0  0  0
    9.2124   55.1931   66.1555 C   0  0  0  0  0  0  0  0  0  0  0  0
    9.2345   55.4905   64.8014 C   0  0  0  0  0  0  0  0  0  0  0  0
    9.7880   54.5918   63.9329 C   0  0  0  0  0  0  0  0  0  0  0  0
   10.3138   53.4061   64.4206 C   0  0  0  0  0  0  0  0  0  0  0  0
   10.2788   53.1388   65.7572 C   0  0  0  0  0  0  0  0  0  0  0  0
    5.8737   55.2508   69.9114 C   0  0  0  0  0  0  0  0  0  0  0  0
    4.1860   55.1941   68.2156 O   0  0  0  0  0  0  0  0  0  0  0  0
    1.6876   55.5178   66.5967 Br  0  0  0  0  0  0  0  0  0  0  0  0
  1  2  2  0
  2  3  1  0
  3  4  1  0
  4  5  2  0
  1  6  1  0
  6  7  2  0
  6  9  1  0
  8 10  1  0
  9 10  2  0
 11 12  2  0
 12 13  1  0
 13 14  2  0
 14 15  1  0
 11 16  1  0
 15 16  2  0
  2 17  1  0
 17 18  1  0
 17 19  2  0
  4 20  1  0
 20 21  2  0
 21 22  1  0
 22 23  2  0
 23 24  1  0
 20 25  1  0
 24 25  2  0
  7 26  1  0
  8 26  2  0
  8 27  1  0
 11 27  1  0
 12 28  1  0
M  END
$$$$
