1YVF_PH7_A_800
     RDKit          3D

 28 30  0  0  0  0  0  0  0  0999 V2000
   90.6689   28.4477  100.8103 C   0  0  0  0  0  0  0  0  0  0  0  0
   91.6710   27.7639  101.3004 C   0  0  0  0  0  0  0  0  0  0  0  0
   92.1243   26.4998  100.8523 N   0  0  0  0  0  0  0  0  0  0  0  0
   92.0326   26.2346   99.4605 C   0  0  0  0  0  0  0  0  0  0  0  0
   91.2253   25.3308   99.0621 O   0  0  0  0  0  0  0  0  0  0  0  0
   90.6927   29.3346   99.6710 C   0  0  0  0  0  0  0  0  0  0  0  0
   91.0583   29.0012   98.3973 C   0  0  0  0  0  0  0  0  0  0  0  0
   90.6769   31.2441   97.5948 C   0  0  0  0  0  0  0  0  0  0  0  0
   90.3151   30.6604   99.8844 C   0  0  0  0  0  0  0  0  0  0  0  0
   90.3076   31.5878   98.8751 C   0  0  0  0  0  0  0  0  0  0  0  0
   90.0870   31.8428   95.3556 C   0  0  0  0  0  0  0  0  0  0  0  0
   89.9205   32.9030   94.4514 C   0  0  0  0  0  0  0  0  0  0  0  0
   89.3280   32.7044   93.2193 C   0  0  0  0  0  0  0  0  0  0  0  0
   88.8737   31.4680   92.8159 C   0  0  0  0  0  0  0  0  0  0  0  0
   89.0345   30.4035   93.7082 C   0  0  0  0  0  0  0  0  0  0  0  0
   89.6335   30.6248   94.9437 C   0  0  0  0  0  0  0  0  0  0  0  0
   92.4258   28.3436  102.4325 C   0  0  0  0  0  0  0  0  0  0  0  0
   92.8700   27.5703  103.4977 O   0  0  0  0  0  0  0  0  0  0  0  0
   92.7043   29.5720  102.4860 O   0  0  0  0  0  0  0  0  0  0  0  0
   92.7988   26.9257   98.4428 C   0  0  0  0  0  0  0  0  0  0  0  0
   92.2323   27.0976   97.1943 C   0  0  0  0  0  0  0  0  0  0  0  0
   92.8957   27.7421   96.1613 C   0  0  0  0  0  0  0  0  0  0  0  0
   94.1550   28.2265   96.3807 C   0  0  0  0  0  0  0  0  0  0  0  0
   94.7414   28.0644   97.6258 C   0  0  0  0  0  0  0  0  0  0  0  0
   94.0663   27.4264   98.6240 C   0  0  0  0  0  0  0  0  0  0  0  0
   91.0606   29.9202   97.3541 C   0  0  0  0  0  0  0  0  0  0  0  0
   90.6837   32.1413   96.5468 O   0  0  0  0  0  0  0  0  0  0  0  0
   90.5238   34.6580   94.9317 Br  0  0  0  0  0  0  0  0  0  0  0  0
  1  2  2  0
  2  3  1  0
  3  4  1  0
  4  5  2  0
  1  6  1  0
  6  7  2  0
  6  9  1  0
  8 10  1  0
  9 10  2  0
 11 12  2  0
 12 13  1  0
 13 14  2  0
 14 15  1  0
 11 16  1  0
 15 16  2  0
  2 17  1  0
 17 18  1  0
 17 19  2  0
  4 20  1  0
 20 21  2  0
 21 22  1  0
 22 23  2  0
 23 24  1  0
 20 25  1  0
 24 25  2  0
  7 26  1  0
  8 26  2  0
  8 27  1  0
 11 27  1  0
 12 28  1  0
M  END
$$$$
