1YVF_PH7_A_800
     RDKit          3D

 28 30  0  0  0  0  0  0  0  0999 V2000
   -5.9712   50.9536   45.7048 C   0  0  0  0  0  0  0  0  0  0  0  0
   -5.2722   51.4512   46.6926 C   0  0  0  0  0  0  0  0  0  0  0  0
   -4.2758   50.7777   47.4393 N   0  0  0  0  0  0  0  0  0  0  0  0
   -4.6770   49.6230   48.1615 C   0  0  0  0  0  0  0  0  0  0  0  0
   -5.9046   49.2775   48.1295 O   0  0  0  0  0  0  0  0  0  0  0  0
   -5.6661   49.7757   44.9272 C   0  0  0  0  0  0  0  0  0  0  0  0
   -6.5106   49.1404   44.0611 C   0  0  0  0  0  0  0  0  0  0  0  0
   -4.8571   47.4696   43.5185 C   0  0  0  0  0  0  0  0  0  0  0  0
   -4.3933   49.2241   45.0742 C   0  0  0  0  0  0  0  0  0  0  0  0
   -4.0008   48.1035   44.3894 C   0  0  0  0  0  0  0  0  0  0  0  0
   -5.4142   45.6904   42.0202 C   0  0  0  0  0  0  0  0  0  0  0  0
   -5.1195   44.3592   41.6880 C   0  0  0  0  0  0  0  0  0  0  0  0
   -5.9737   43.6145   40.8978 C   0  0  0  0  0  0  0  0  0  0  0  0
   -7.1483   44.1329   40.3987 C   0  0  0  0  0  0  0  0  0  0  0  0
   -7.4531   45.4584   40.7233 C   0  0  0  0  0  0  0  0  0  0  0  0
   -6.5797   46.1907   41.5202 C   0  0  0  0  0  0  0  0  0  0  0  0
   -5.5229   52.8537   47.0895 C   0  0  0  0  0  0  0  0  0  0  0  0
   -4.6816   53.5374   47.9583 O   0  0  0  0  0  0  0  0  0  0  0  0
   -6.5153   53.4996   46.6568 O   0  0  0  0  0  0  0  0  0  0  0  0
   -3.7817   48.7940   48.9435 C   0  0  0  0  0  0  0  0  0  0  0  0
   -2.4632   49.1869   49.0722 C   0  0  0  0  0  0  0  0  0  0  0  0
   -1.5377   48.4518   49.7972 C   0  0  0  0  0  0  0  0  0  0  0  0
   -1.9387   47.2968   50.4084 C   0  0  0  0  0  0  0  0  0  0  0  0
   -3.2567   46.8848   50.2917 C   0  0  0  0  0  0  0  0  0  0  0  0
   -4.1460   47.6269   49.5723 C   0  0  0  0  0  0  0  0  0  0  0  0
   -6.1403   48.0025   43.3533 C   0  0  0  0  0  0  0  0  0  0  0  0
   -4.5071   46.3411   42.8063 O   0  0  0  0  0  0  0  0  0  0  0  0
   -3.5046   43.5581   42.3397 Br  0  0  0  0  0  0  0  0  0  0  0  0
  1  2  2  0
  2  3  1  0
  3  4  1  0
  4  5  2  0
  1  6  1  0
  6  7  2  0
  6  9  1  0
  8 10  1  0
  9 10  2  0
 11 12  2  0
 12 13  1  0
 13 14  2  0
 14 15  1  0
 11 16  1  0
 15 16  2  0
  2 17  1  0
 17 18  1  0
 17 19  2  0
  4 20  1  0
 20 21  2  0
 21 22  1  0
 22 23  2  0
 23 24  1  0
 20 25  1  0
 24 25  2  0
  7 26  1  0
  8 26  2  0
  8 27  1  0
 11 27  1  0
 12 28  1  0
M  END
$$$$
