1YVF_PH7_A_800
     RDKit          3D

 28 30  0  0  0  0  0  0  0  0999 V2000
  -10.0665   75.3410   52.0814 C   0  0  0  0  0  0  0  0  0  0  0  0
  -10.6510   75.5634   50.9321 C   0  0  0  0  0  0  0  0  0  0  0  0
  -11.9739   76.0287   50.7387 N   0  0  0  0  0  0  0  0  0  0  0  0
  -12.7763   76.2003   51.8973 C   0  0  0  0  0  0  0  0  0  0  0  0
  -12.2723   75.9252   53.0365 O   0  0  0  0  0  0  0  0  0  0  0  0
   -8.9283   74.4880   52.3302 C   0  0  0  0  0  0  0  0  0  0  0  0
   -8.2464   73.7606   51.3959 C   0  0  0  0  0  0  0  0  0  0  0  0
   -6.7319   72.8707   53.0495 C   0  0  0  0  0  0  0  0  0  0  0  0
   -8.4810   74.3862   53.6476 C   0  0  0  0  0  0  0  0  0  0  0  0
   -7.4137   73.6001   53.9964 C   0  0  0  0  0  0  0  0  0  0  0  0
   -5.2557   71.8705   54.6435 C   0  0  0  0  0  0  0  0  0  0  0  0
   -4.1969   70.9723   54.8476 C   0  0  0  0  0  0  0  0  0  0  0  0
   -3.7223   70.7046   56.1171 C   0  0  0  0  0  0  0  0  0  0  0  0
   -4.2569   71.2986   57.2391 C   0  0  0  0  0  0  0  0  0  0  0  0
   -5.3121   72.1959   57.0485 C   0  0  0  0  0  0  0  0  0  0  0  0
   -5.7751   72.4515   55.7621 C   0  0  0  0  0  0  0  0  0  0  0  0
   -9.8783   75.3163   49.6955 C   0  0  0  0  0  0  0  0  0  0  0  0
   -8.5595   74.8801   49.7229 O   0  0  0  0  0  0  0  0  0  0  0  0
  -10.3805   75.4894   48.5522 O   0  0  0  0  0  0  0  0  0  0  0  0
  -14.1462   76.6732   51.8822 C   0  0  0  0  0  0  0  0  0  0  0  0
  -14.8063   76.8199   53.0872 C   0  0  0  0  0  0  0  0  0  0  0  0
  -16.1184   77.2613   53.1650 C   0  0  0  0  0  0  0  0  0  0  0  0
  -16.7871   77.5636   52.0118 C   0  0  0  0  0  0  0  0  0  0  0  0
  -16.1432   77.4233   50.7927 C   0  0  0  0  0  0  0  0  0  0  0  0
  -14.8523   76.9869   50.7450 C   0  0  0  0  0  0  0  0  0  0  0  0
   -7.1609   72.9549   51.7203 C   0  0  0  0  0  0  0  0  0  0  0  0
   -5.6517   72.0675   53.3518 O   0  0  0  0  0  0  0  0  0  0  0  0
   -3.3942   70.1000   53.3412 Br  0  0  0  0  0  0  0  0  0  0  0  0
  1  2  2  0
  2  3  1  0
  3  4  1  0
  4  5  2  0
  1  6  1  0
  6  7  2  0
  6  9  1  0
  8 10  1  0
  9 10  2  0
 11 12  2  0
 12 13  1  0
 13 14  2  0
 14 15  1  0
 11 16  1  0
 15 16  2  0
  2 17  1  0
 17 18  1  0
 17 19  2  0
  4 20  1  0
 20 21  2  0
 21 22  1  0
 22 23  2  0
 23 24  1  0
 20 25  1  0
 24 25  2  0
  7 26  1  0
  8 26  2  0
  8 27  1  0
 11 27  1  0
 12 28  1  0
M  END
$$$$
