1YVF_PH7_A_800
     RDKit          3D

 28 30  0  0  0  0  0  0  0  0999 V2000
   -9.3449   54.6718   47.3445 C   0  0  0  0  0  0  0  0  0  0  0  0
   -8.1822   54.2815   47.8004 C   0  0  0  0  0  0  0  0  0  0  0  0
   -7.8543   54.0224   49.1528 N   0  0  0  0  0  0  0  0  0  0  0  0
   -7.5359   55.1404   49.9680 C   0  0  0  0  0  0  0  0  0  0  0  0
   -7.5641   56.3047   49.4474 O   0  0  0  0  0  0  0  0  0  0  0  0
  -10.5135   55.0184   48.1189 C   0  0  0  0  0  0  0  0  0  0  0  0
  -11.7057   55.4653   47.6231 C   0  0  0  0  0  0  0  0  0  0  0  0
  -12.6660   55.6520   49.8283 C   0  0  0  0  0  0  0  0  0  0  0  0
  -10.4219   54.8947   49.5053 C   0  0  0  0  0  0  0  0  0  0  0  0
  -11.4682   55.2028   50.3354 C   0  0  0  0  0  0  0  0  0  0  0  0
  -14.3529   57.1931   50.5355 C   0  0  0  0  0  0  0  0  0  0  0  0
  -14.9630   57.6786   51.7023 C   0  0  0  0  0  0  0  0  0  0  0  0
  -15.6022   58.9033   51.7174 C   0  0  0  0  0  0  0  0  0  0  0  0
  -15.6742   59.7055   50.5999 C   0  0  0  0  0  0  0  0  0  0  0  0
  -15.0695   59.2326   49.4312 C   0  0  0  0  0  0  0  0  0  0  0  0
  -14.4312   57.9970   49.4372 C   0  0  0  0  0  0  0  0  0  0  0  0
   -7.0833   54.0798   46.8313 C   0  0  0  0  0  0  0  0  0  0  0  0
   -5.8855   53.4732   47.1881 O   0  0  0  0  0  0  0  0  0  0  0  0
   -7.1806   54.4491   45.6298 O   0  0  0  0  0  0  0  0  0  0  0  0
   -7.1769   55.0563   51.3696 C   0  0  0  0  0  0  0  0  0  0  0  0
   -7.1624   53.8132   51.9729 C   0  0  0  0  0  0  0  0  0  0  0  0
   -6.8359   53.6414   53.3095 C   0  0  0  0  0  0  0  0  0  0  0  0
   -6.5161   54.7373   54.0614 C   0  0  0  0  0  0  0  0  0  0  0  0
   -6.5246   55.9931   53.4755 C   0  0  0  0  0  0  0  0  0  0  0  0
   -6.8498   56.1335   52.1588 C   0  0  0  0  0  0  0  0  0  0  0  0
  -12.7838   55.7854   48.4404 C   0  0  0  0  0  0  0  0  0  0  0  0
  -13.7471   55.9726   50.6231 O   0  0  0  0  0  0  0  0  0  0  0  0
  -14.9108   56.6264   53.3038 Br  0  0  0  0  0  0  0  0  0  0  0  0
  1  2  2  0
  2  3  1  0
  3  4  1  0
  4  5  2  0
  1  6  1  0
  6  7  2  0
  6  9  1  0
  8 10  1  0
  9 10  2  0
 11 12  2  0
 12 13  1  0
 13 14  2  0
 14 15  1  0
 11 16  1  0
 15 16  2  0
  2 17  1  0
 17 18  1  0
 17 19  2  0
  4 20  1  0
 20 21  2  0
 21 22  1  0
 22 23  2  0
 23 24  1  0
 20 25  1  0
 24 25  2  0
  7 26  1  0
  8 26  2  0
  8 27  1  0
 11 27  1  0
 12 28  1  0
M  END
$$$$
