
     RDKit          3D

 12 12  0  0  0  0  0  0  0  0999 V2000
    7.4606  142.0847  100.6491 C   0  0  0  0  0  0  0  0  0  0  0  0
    8.8060  141.6679  100.1192 C   0  0  2  0  0  0  0  0  0  0  0  0
    9.8476  141.6117  101.2324 C   0  0  0  0  0  0  0  0  0  0  0  0
   10.8858  140.5619  100.9567 C   0  0  0  0  0  0  0  0  0  0  0  0
    9.0962  142.7152   99.0364 C   0  0  0  0  0  0  0  0  0  0  0  0
    7.8088  143.4835   98.8911 C   0  0  0  0  0  0  0  0  0  0  0  0
    6.9072  142.9300   99.7435 N   0  0  0  0  0  0  0  0  0  0  0  0
    5.6801  143.5426  100.0003 O   0  0  0  0  0  0  0  0  0  0  0  0
   10.9891  140.2843   99.6449 O   0  0  0  0  0  0  0  0  0  0  0  0
   11.5765  139.9857  101.7787 O   0  0  0  0  0  0  0  0  0  0  0  0
    7.6766  144.4596   98.1689 O   0  0  0  0  0  0  0  0  0  0  0  0
    6.9642  141.7457  101.7130 O   0  0  0  0  0  0  0  0  0  0  0  0
  1  2  1  0
  2  3  1  1
  3  4  1  0
  2  5  1  0
  5  6  1  0
  6  7  1  0
  1  7  1  0
  7  8  1  0
  4  9  1  0
  4 10  2  0
  6 11  2  0
  1 12  2  0
M  END
