
     RDKit          3D

 29 31  0  0  0  0  0  0  0  0999 V2000
   34.1822    8.6243  -27.5758 Cl  0  0  0  0  0  0  0  0  0  0  0  0
   33.7216    9.5601  -26.2372 C   0  0  0  0  0  0  0  0  0  0  0  0
   34.6383   10.3848  -25.7116 N   0  0  0  0  0  0  0  0  0  0  0  0
   34.2699   11.1228  -24.6610 C   0  0  0  0  0  0  0  0  0  0  0  0
   35.2152   11.9795  -24.1433 N   0  0  0  0  0  0  0  0  0  0  0  0
   33.0784   11.1077  -24.0543 N   0  0  0  0  0  0  0  0  0  0  0  0
   32.1902   10.2833  -24.6363 C   0  0  0  0  0  0  0  0  0  0  0  0
   32.4303    9.4664  -25.7350 C   0  0  0  0  0  0  0  0  0  0  0  0
   30.8810   10.1117  -24.2457 N   0  0  0  0  0  0  0  0  0  0  0  0
   30.2388   10.8121  -23.1384 C   0  0  0  0  0  0  0  0  0  0  0  0
   29.1911   11.7916  -23.6153 C   0  0  0  0  0  0  0  0  0  0  0  0
   29.5123   13.0670  -24.1046 C   0  0  0  0  0  0  0  0  0  0  0  0
   30.9348   13.5185  -24.2631 C   0  0  0  0  0  0  0  0  0  0  0  0
   28.4388   13.9198  -24.4120 C   0  0  0  0  0  0  0  0  0  0  0  0
   28.6781   15.2038  -24.8462 O   0  0  0  0  0  0  0  0  0  0  0  0
   28.8030   15.2265  -26.2713 C   0  0  0  0  0  0  0  0  0  0  0  0
   27.1154   13.4753  -24.3503 C   0  0  0  0  0  0  0  0  0  0  0  0
   25.9518   14.3458  -24.7211 C   0  0  0  0  0  0  0  0  0  0  0  0
   26.9133   12.1916  -23.8746 C   0  0  0  0  0  0  0  0  0  0  0  0
   27.9076   11.3581  -23.4964 N   0  0  0  0  0  0  0  0  0  0  0  0
   30.2715    9.2192  -25.0941 C   0  0  0  0  0  0  0  0  0  0  0  0
   31.2174    8.7737  -25.9953 C   0  0  0  0  0  0  0  0  0  0  0  0
   30.9368    7.7992  -26.9982 C   0  0  0  0  0  0  0  0  0  0  0  0
   30.6529    6.9694  -27.8182 C   0  0  0  0  0  0  0  0  0  0  0  0
   30.2488    5.9534  -28.8025 C   0  0  0  0  0  0  0  0  0  0  0  0
   31.1962    5.8318  -30.0144 C   0  0  0  0  0  0  0  0  0  0  0  0
   31.0173    4.4989  -30.7498 C   0  0  0  0  0  0  0  0  0  0  0  0
   32.6628    6.0489  -29.6261 C   0  0  0  0  0  0  0  0  0  0  0  0
   30.8349    6.8807  -30.9310 O   0  0  0  0  0  0  0  0  0  0  0  0
  1  2  1  0
  2  3  4  0
  3  4  4  0
  4  5  1  0
  4  6  4  0
  6  7  4  0
  2  8  4  0
  7  8  4  0
  7  9  4  0
  9 10  1  0
 10 11  1  0
 11 12  4  0
 12 13  1  0
 12 14  4  0
 14 15  1  0
 15 16  1  0
 14 17  4  0
 17 18  1  0
 17 19  4  0
 11 20  4  0
 19 20  4  0
  9 21  4  0
  8 22  4  0
 21 22  4  0
 22 23  1  0
 23 24  3  0
 24 25  1  0
 25 26  1  0
 26 27  1  0
 26 28  1  0
 26 29  1  0
M  END
