7OFK_VCH_A_601
     RDKit          3D

 53 55  0  0  0  0  0  0  0  0999 V2000
   -4.6567   -7.3210  -10.0325 C   0  0  0  0  0  0  0  0  0  0  0  0
   -4.4787   -5.8693  -10.3511 C   0  0  0  0  0  0  0  0  0  0  0  0
   -1.3856   -3.2920  -13.3738 C   0  0  0  0  0  0  0  0  0  0  0  0
   -0.0882   -3.5270  -13.8666 C   0  0  0  0  0  0  0  0  0  0  0  0
    0.6211   -4.6769  -13.4576 C   0  0  0  0  0  0  0  0  0  0  0  0
    0.0360   -5.5945  -12.5716 C   0  0  0  0  0  0  0  0  0  0  0  0
   -1.2531   -5.3393  -12.0996 C   0  0  0  0  0  0  0  0  0  0  0  0
   -2.0650   -6.1597  -11.1625 C   0  0  1  0  0  0  0  0  0  0  0  0
   -1.3885   -6.2524   -9.8217 C   0  0  0  0  0  0  0  0  0  0  0  0
   -0.1793   -4.0285   -9.6460 C   0  0  0  0  0  0  0  0  0  0  0  0
   -0.0141   -1.2041   -9.8694 C   0  0  0  0  0  0  0  0  0  0  0  0
   -1.1053   -1.9159  -10.4145 C   0  0  0  0  0  0  0  0  0  0  0  0
   -1.1779   -3.3082  -10.3182 C   0  0  0  0  0  0  0  0  0  0  0  0
    0.0604    0.3333   -9.9351 C   0  0  2  0  0  0  0  0  0  0  0  0
   -1.1370    0.9295  -10.7395 C   0  0  1  0  0  0  0  0  0  0  0  0
    2.4270   -2.4627  -14.8030 C   0  0  0  0  0  0  0  0  0  0  0  0
   -5.3563   -5.0452   -9.9765 O   0  0  0  0  0  0  0  0  0  0  0  0
   -3.3218   -5.4065  -11.0695 N   0  0  0  0  0  0  0  0  0  0  0  0
   -3.2900   -4.1784  -11.8682 C   0  0  0  0  0  0  0  0  0  0  0  0
   -1.9454   -4.2176  -12.4924 C   0  0  0  0  0  0  0  0  0  0  0  0
   -1.8543   -7.0261   -8.9404 O   0  0  0  0  0  0  0  0  0  0  0  0
   -0.2197   -5.4626   -9.5541 N   0  0  0  0  0  0  0  0  0  0  0  0
    0.9050   -3.3356   -9.0977 C   0  0  0  0  0  0  0  0  0  0  0  0
    0.9807   -1.9436   -9.1909 C   0  0  0  0  0  0  0  0  0  0  0  0
    1.2486    0.6906  -10.6128 O   0  0  0  0  0  0  0  0  0  0  0  0
   -0.7911    1.0976  -12.0698 F   0  0  0  0  0  0  0  0  0  0  0  0
   -2.2188    0.0670  -10.6841 F   0  0  0  0  0  0  0  0  0  0  0  0
   -1.5262    2.1647  -10.2527 F   0  0  0  0  0  0  0  0  0  0  0  0
    0.1106    0.8952   -8.4851 C   0  0  2  0  0  0  0  0  0  0  0  0
   -1.0087    1.6601   -8.2042 F   0  0  0  0  0  0  0  0  0  0  0  0
    1.2332    1.6852   -8.3044 F   0  0  0  0  0  0  0  0  0  0  0  0
    0.1631   -0.1517   -7.5803 F   0  0  0  0  0  0  0  0  0  0  0  0
    0.6585   -2.3732  -14.9655 S   0  0  2  0  0  6  0  0  0  0  0  0
    0.1924   -0.9826  -14.6365 O   0  0  0  0  0  0  0  0  0  0  0  0
    0.2665   -2.6907  -16.3814 O   0  0  0  0  0  0  0  0  0  0  0  0
   -4.6303   -7.9158  -10.9690 H   0  0  0  0  0  0  0  0  0  0  0  0
   -5.6319   -7.4932   -9.5296 H   0  0  0  0  0  0  0  0  0  0  0  0
   -3.8429   -7.6582   -9.3576 H   0  0  0  0  0  0  0  0  0  0  0  0
   -1.9433   -2.4119  -13.6663 H   0  0  0  0  0  0  0  0  0  0  0  0
    1.6241   -4.8589  -13.8216 H   0  0  0  0  0  0  0  0  0  0  0  0
    0.5760   -6.4781  -12.2561 H   0  0  0  0  0  0  0  0  0  0  0  0
   -2.2538   -7.1639  -11.5999 H   0  0  0  0  0  0  0  0  0  0  0  0
   -1.9143   -1.4079  -10.9150 H   0  0  0  0  0  0  0  0  0  0  0  0
   -2.0079   -3.8195  -10.7872 H   0  0  0  0  0  0  0  0  0  0  0  0
    2.7146   -2.2287  -13.7569 H   0  0  0  0  0  0  0  0  0  0  0  0
    2.9015   -1.7305  -15.4884 H   0  0  0  0  0  0  0  0  0  0  0  0
    2.7716   -3.4858  -15.0598 H   0  0  0  0  0  0  0  0  0  0  0  0
   -3.3921   -3.2865  -11.2143 H   0  0  0  0  0  0  0  0  0  0  0  0
   -4.0783   -4.2006  -12.6502 H   0  0  0  0  0  0  0  0  0  0  0  0
    0.6339   -5.9553   -9.2061 H   0  0  0  0  0  0  0  0  0  0  0  0
    1.6882   -3.8758   -8.5799 H   0  0  0  0  0  0  0  0  0  0  0  0
    1.8236   -1.4525   -8.7229 H   0  0  0  0  0  0  0  0  0  0  0  0
    1.3965    1.6677  -10.5187 H   0  0  0  0  0  0  0  0  0  0  0  0
  1  2  1  0
  3  4  4  0
  4  5  4  0
  5  6  4  0
  6  7  4  0
  7  8  1  0
  8  9  1  0
 11 12  4  0
 12 13  4  0
 10 13  4  0
 11 14  1  0
 14 15  1  0
  2 17  2  0
  8 18  1  0
  2 18  1  0
 18 19  1  0
  3 20  4  0
  7 20  4  0
 19 20  1  0
  9 21  2  0
 10 22  1  0
  9 22  1  0
 10 23  4  0
 11 24  4  0
 23 24  4  0
 14 25  1  1
 15 26  1  1
 15 27  1  0
 15 28  1  0
 14 29  1  0
 29 30  1  6
 29 31  1  0
 29 32  1  0
 33 16  1  1
  4 33  1  0
 33 34  2  0
 33 35  2  0
  1 36  1  0
  1 37  1  0
  1 38  1  0
  3 39  1  0
  5 40  1  0
  6 41  1  0
  8 42  1  1
 12 43  1  0
 13 44  1  0
 16 45  1  0
 16 46  1  0
 16 47  1  0
 19 48  1  0
 19 49  1  0
 22 50  1  0
 23 51  1  0
 24 52  1  0
 25 53  1  0
M  END
