6W59_SZD_A_602
     RDKit          3D

 32 34  0  0  0  0  0  0  0  0999 V2000
   -4.3849  -24.4162  -18.6298 N   0  0  0  0  0  0  0  0  0  0  0  0
   -1.7436  -25.1931  -19.8094 C   0  0  0  0  0  0  0  0  0  0  0  0
   -2.7872  -24.7067  -20.5629 C   0  0  0  0  0  0  0  0  0  0  0  0
   -2.5705  -24.6418  -21.9337 C   0  0  0  0  0  0  0  0  0  0  0  0
   -4.0622  -24.2673  -19.9844 C   0  0  0  0  0  0  0  0  0  0  0  0
   -5.6402  -24.2119  -18.0209 C   0  0  0  0  0  0  0  0  0  0  0  0
   -7.5422  -24.8612  -16.6575 C   0  0  0  0  0  0  0  0  0  0  0  0
   -6.2830  -22.9886  -18.1956 C   0  0  0  0  0  0  0  0  0  0  0  0
   -7.9544  -20.3232  -13.9797 C   0  0  0  0  0  0  0  0  0  0  0  0
   -5.6239  -19.8278  -13.5376 C   0  0  0  0  0  0  0  0  0  0  0  0
   -4.5470  -18.9630  -11.5040 C   0  0  2  0  0  0  0  0  0  0  0  0
   -1.3937  -25.0328  -22.5258 C   0  0  0  0  0  0  0  0  0  0  0  0
   -0.3630  -25.5153  -21.7587 C   0  0  0  0  0  0  0  0  0  0  0  0
   -0.5704  -25.5843  -20.3894 C   0  0  0  0  0  0  0  0  0  0  0  0
   -1.2551  -24.9374  -23.8848 F   0  0  0  0  0  0  0  0  0  0  0  0
    0.4864  -26.0743  -19.6658 F   0  0  0  0  0  0  0  0  0  0  0  0
   -4.8720  -23.7382  -20.7745 O   0  0  0  0  0  0  0  0  0  0  0  0
   -6.3021  -25.1293  -17.2419 C   0  0  0  0  0  0  0  0  0  0  0  0
   -8.1786  -23.6540  -16.8291 C   0  0  0  0  0  0  0  0  0  0  0  0
   -7.5042  -22.7173  -17.6243 C   0  0  0  0  0  0  0  0  0  0  0  0
   -8.3335  -21.1960  -17.8694 S   0  0  1  0  0  6  0  0  0  0  0  0
   -8.7021  -20.4600  -16.3279 N   0  0  0  0  0  0  0  0  0  0  0  0
   -7.5392  -20.2142  -18.6665 O   0  0  0  0  0  0  0  0  0  0  0  0
   -9.6632  -21.4043  -18.5552 O   0  0  0  0  0  0  0  0  0  0  0  0
   -7.7024  -20.2606  -15.3366 C   0  0  0  0  0  0  0  0  0  0  0  0
   -6.8957  -20.1023  -13.0872 C   0  0  0  0  0  0  0  0  0  0  0  0
   -5.4049  -19.7725  -14.9195 C   0  0  0  0  0  0  0  0  0  0  0  0
   -6.4208  -19.9836  -15.8256 C   0  0  0  0  0  0  0  0  0  0  0  0
   -4.5353  -19.5989  -12.7386 O   0  0  0  0  0  0  0  0  0  0  0  0
   -3.3022  -18.8692  -10.9236 F   0  0  0  0  0  0  0  0  0  0  0  0
   -5.2951  -19.7899  -10.6514 F   0  0  0  0  0  0  0  0  0  0  0  0
   -5.1664  -17.7498  -11.5088 F   0  0  0  0  0  0  0  0  0  0  0  0
  2  3  2  0
  3  4  1  0
  3  5  1  0
  1  5  1  0
  1  6  1  0
  6  8  2  0
  4 12  2  0
 12 13  1  0
 13 14  2  0
  2 14  1  0
 12 15  1  0
 14 16  1  0
  5 17  2  0
  6 18  1  0
  7 18  2  0
  7 19  1  0
  8 20  1  0
 19 20  2  0
 20 21  1  0
 21 22  1  1
 21 23  2  0
 21 24  2  0
  9 25  2  0
 22 25  1  0
 10 26  2  0
  9 26  1  0
 10 27  1  0
 27 28  2  0
 25 28  1  0
 11 29  1  0
 10 29  1  0
 11 30  1  1
 11 31  1  0
 11 32  1  0
M  END
$$$$
