1HNN_SKF_A_3001
     RDKit          3D

 14 15  0  0  0  0  0  0  0  0999 V2000
    6.5796   31.5128    0.4054 C   0  0  0  0  0  0  0  0  0  0  0  0
    6.3907   32.2491   -0.7526 C   0  0  0  0  0  0  0  0  0  0  0  0
    6.8309   33.5611   -0.8311 C   0  0  0  0  0  0  0  0  0  0  0  0
    7.4539   34.1206    0.2481 C   0  0  0  0  0  0  0  0  0  0  0  0
    6.5461   34.4059   -2.3339 S   0  0  2  0  0  0  0  0  0  0  0  0
    7.6380   33.3661    1.4105 C   0  0  0  0  0  0  0  0  0  0  0  0
    7.2135   32.0650    1.5190 C   0  0  0  0  0  0  0  0  0  0  0  0
    5.1536   34.1863   -2.8112 O   0  0  0  0  0  0  0  0  0  0  0  0
    7.5411   33.8903   -3.3616 O   0  0  0  0  0  0  0  0  0  0  0  0
    6.8626   36.0858   -2.0681 N   0  0  0  0  0  0  0  0  0  0  0  0
    8.3163   34.0113    2.5521 C   0  0  0  0  0  0  0  0  0  0  0  0
    7.8507   32.0683    3.8848 C   0  0  0  0  0  0  0  0  0  0  0  0
    7.3900   31.2331    2.7331 C   0  0  0  0  0  0  0  0  0  0  0  0
    8.8319   33.0468    3.5003 N   0  0  0  0  0  0  0  0  0  0  0  0
  1  2  2  0
  2  3  1  0
  3  4  2  0
  3  5  1  0
  4  6  1  0
  1  7  1  0
  6  7  2  0
  5  8  2  0
  5  9  2  0
  5 10  1  1
  6 11  1  0
  7 13  1  0
 12 13  1  0
 11 14  1  0
 12 14  1  0
M  END
$$$$
