1HNN_SKF_A_3001
     RDKit          3D

 14 15  0  0  0  0  0  0  0  0999 V2000
   28.2720   42.6658   17.3098 C   0  0  0  0  0  0  0  0  0  0  0  0
   27.8272   42.7623   16.0016 C   0  0  0  0  0  0  0  0  0  0  0  0
   27.7395   43.9972   15.3782 C   0  0  0  0  0  0  0  0  0  0  0  0
   28.0972   45.1196   16.0697 C   0  0  0  0  0  0  0  0  0  0  0  0
   27.1673   44.0147   13.7272 S   0  0  2  0  0  0  0  0  0  0  0  0
   28.5444   45.0078   17.3894 C   0  0  0  0  0  0  0  0  0  0  0  0
   28.6423   43.7995   18.0340 C   0  0  0  0  0  0  0  0  0  0  0  0
   26.4885   45.3016   13.4139 O   0  0  0  0  0  0  0  0  0  0  0  0
   26.2009   42.8543   13.5499 O   0  0  0  0  0  0  0  0  0  0  0  0
   28.5267   43.7516   12.6902 N   0  0  0  0  0  0  0  0  0  0  0  0
   28.9204   46.2470   18.0983 C   0  0  0  0  0  0  0  0  0  0  0  0
   29.2141   44.9684   20.1101 C   0  0  0  0  0  0  0  0  0  0  0  0
   29.1114   43.6401   19.4311 C   0  0  0  0  0  0  0  0  0  0  0  0
   29.7555   45.9874   19.2517 N   0  0  0  0  0  0  0  0  0  0  0  0
  1  2  2  0
  2  3  1  0
  3  4  2  0
  3  5  1  0
  4  6  1  0
  1  7  1  0
  6  7  2  0
  5  8  2  0
  5  9  2  0
  5 10  1  6
  6 11  1  0
  7 13  1  0
 12 13  1  0
 11 14  1  0
 12 14  1  0
M  END
$$$$
