1HNN_SKF_A_3001
     RDKit          3D

 14 15  0  0  0  0  0  0  0  0999 V2000
   17.5726   42.6644    0.7019 C   0  0  0  0  0  0  0  0  0  0  0  0
   16.2614   42.9082    0.3278 C   0  0  0  0  0  0  0  0  0  0  0  0
   15.9751   43.8154   -0.6802 C   0  0  0  0  0  0  0  0  0  0  0  0
   17.0022   44.4674   -1.3015 C   0  0  0  0  0  0  0  0  0  0  0  0
   14.2907   44.0537   -1.0796 S   0  0  2  0  0  0  0  0  0  0  0  0
   18.3207   44.2118   -0.9140 C   0  0  0  0  0  0  0  0  0  0  0  0
   18.6364   43.3194    0.0804 C   0  0  0  0  0  0  0  0  0  0  0  0
   14.0974   45.3236   -1.8313 O   0  0  0  0  0  0  0  0  0  0  0  0
   13.4976   44.0850    0.2173 O   0  0  0  0  0  0  0  0  0  0  0  0
   13.7648   42.6891   -2.0038 N   0  0  0  0  0  0  0  0  0  0  0  0
   19.3989   44.9391   -1.6127 C   0  0  0  0  0  0  0  0  0  0  0  0
   20.9863   43.9947   -0.0776 C   0  0  0  0  0  0  0  0  0  0  0  0
   20.0206   43.0215    0.5192 C   0  0  0  0  0  0  0  0  0  0  0  0
   20.6869   44.2987   -1.4509 N   0  0  0  0  0  0  0  0  0  0  0  0
  1  2  2  0
  2  3  1  0
  3  4  2  0
  3  5  1  0
  4  6  1  0
  1  7  1  0
  6  7  2  0
  5  8  2  0
  5  9  2  0
  5 10  1  6
  6 11  1  0
  7 13  1  0
 12 13  1  0
 11 14  1  0
 12 14  1  0
M  END
$$$$
