1HNN_SKF_A_3001
     RDKit          3D

 14 15  0  0  0  0  0  0  0  0999 V2000
    4.0255   43.0609   16.3992 C   0  0  0  0  0  0  0  0  0  0  0  0
    3.9989   43.4562   17.7266 C   0  0  0  0  0  0  0  0  0  0  0  0
    5.0966   43.2430   18.5456 C   0  0  0  0  0  0  0  0  0  0  0  0
    6.2066   42.6378   18.0283 C   0  0  0  0  0  0  0  0  0  0  0  0
    4.9658   43.7771   20.2042 S   0  0  2  0  0  0  0  0  0  0  0  0
    6.2198   42.2440   16.6871 C   0  0  0  0  0  0  0  0  0  0  0  0
    5.1489   42.4412   15.8509 C   0  0  0  0  0  0  0  0  0  0  0  0
    3.6207   43.4636   20.7587 O   0  0  0  0  0  0  0  0  0  0  0  0
    5.2114   45.2773   20.2382 O   0  0  0  0  0  0  0  0  0  0  0  0
    6.2172   43.0021   21.1131 N   0  0  0  0  0  0  0  0  0  0  0  0
    7.4404   41.5936   16.1705 C   0  0  0  0  0  0  0  0  0  0  0  0
    6.3010   41.1746   14.0982 C   0  0  0  0  0  0  0  0  0  0  0  0
    5.1246   42.0381   14.4246 C   0  0  0  0  0  0  0  0  0  0  0  0
    7.5122   41.6307   14.7253 N   0  0  0  0  0  0  0  0  0  0  0  0
  1  2  2  0
  2  3  1  0
  3  4  2  0
  3  5  1  0
  4  6  1  0
  1  7  1  0
  6  7  2  0
  5  8  2  0
  5  9  2  0
  5 10  1  1
  6 11  1  0
  7 13  1  0
 12 13  1  0
 11 14  1  0
 12 14  1  0
M  END
$$$$
