1HNN_SKF_A_3001
     RDKit          3D

 14 15  0  0  0  0  0  0  0  0999 V2000
    4.8419   42.0085   15.6436 C   0  0  0  0  0  0  0  0  0  0  0  0
    5.3091   41.7444   16.9207 C   0  0  0  0  0  0  0  0  0  0  0  0
    5.1404   42.6719   17.9367 C   0  0  0  0  0  0  0  0  0  0  0  0
    4.5073   43.8513   17.6640 C   0  0  0  0  0  0  0  0  0  0  0  0
    5.7641   42.2463   19.5125 S   0  0  2  0  0  0  0  0  0  0  0  0
    4.0409   44.1048   16.3709 C   0  0  0  0  0  0  0  0  0  0  0  0
    4.1927   43.2066   15.3437 C   0  0  0  0  0  0  0  0  0  0  0  0
    4.8876   41.2444   20.1780 O   0  0  0  0  0  0  0  0  0  0  0  0
    5.8413   43.5142   20.3482 O   0  0  0  0  0  0  0  0  0  0  0  0
    7.3695   41.6369   19.3024 N   0  0  0  0  0  0  0  0  0  0  0  0
    3.3627   45.3923   16.1216 C   0  0  0  0  0  0  0  0  0  0  0  0
    3.2811   44.8591   13.7813 C   0  0  0  0  0  0  0  0  0  0  0  0
    3.7124   43.4386   13.9607 C   0  0  0  0  0  0  0  0  0  0  0  0
    2.5596   45.3653   14.9177 N   0  0  0  0  0  0  0  0  0  0  0  0
  1  2  2  0
  2  3  1  0
  3  4  2  0
  3  5  1  0
  4  6  1  0
  1  7  1  0
  6  7  2  0
  5  8  2  0
  5  9  2  0
  5 10  1  6
  6 11  1  0
  7 13  1  0
 12 13  1  0
 11 14  1  0
 12 14  1  0
M  END
$$$$
