1HNN_SKF_A_3001
     RDKit          3D

 14 15  0  0  0  0  0  0  0  0999 V2000
    5.8241   42.9423   22.4248 C   0  0  0  0  0  0  0  0  0  0  0  0
    6.0156   43.0016   21.0541 C   0  0  0  0  0  0  0  0  0  0  0  0
    6.6169   41.9489   20.3822 C   0  0  0  0  0  0  0  0  0  0  0  0
    7.0191   40.8507   21.0879 C   0  0  0  0  0  0  0  0  0  0  0  0
    6.8138   42.1185   18.6542 S   0  0  2  0  0  0  0  0  0  0  0  0
    6.8198   40.8041   22.4707 C   0  0  0  0  0  0  0  0  0  0  0  0
    6.2274   41.8301   23.1645 C   0  0  0  0  0  0  0  0  0  0  0  0
    7.1634   43.5197   18.2943 O   0  0  0  0  0  0  0  0  0  0  0  0
    5.5077   41.7154   17.9881 O   0  0  0  0  0  0  0  0  0  0  0  0
    8.0444   41.0131   18.1479 N   0  0  0  0  0  0  0  0  0  0  0  0
    7.2701   39.5977   23.1929 C   0  0  0  0  0  0  0  0  0  0  0  0
    6.7188   40.6738   25.2680 C   0  0  0  0  0  0  0  0  0  0  0  0
    5.9988   41.8180   24.6291 C   0  0  0  0  0  0  0  0  0  0  0  0
    6.6400   39.4673   24.4895 N   0  0  0  0  0  0  0  0  0  0  0  0
  1  2  2  0
  2  3  1  0
  3  4  2  0
  3  5  1  0
  4  6  1  0
  1  7  1  0
  6  7  2  0
  5  8  2  0
  5  9  2  0
  5 10  1  6
  6 11  1  0
  7 13  1  0
 12 13  1  0
 11 14  1  0
 12 14  1  0
M  END
$$$$
