1HNN_SKF_A_3001
     RDKit          3D

 14 15  0  0  0  0  0  0  0  0999 V2000
    5.7362   41.3510   14.5754 C   0  0  0  0  0  0  0  0  0  0  0  0
    4.7818   42.1898   15.1270 C   0  0  0  0  0  0  0  0  0  0  0  0
    4.9184   42.6514   16.4268 C   0  0  0  0  0  0  0  0  0  0  0  0
    6.0065   42.2691   17.1588 C   0  0  0  0  0  0  0  0  0  0  0  0
    3.6621   43.7045   17.0319 S   0  0  2  0  0  0  0  0  0  0  0  0
    6.9621   41.4222   16.5897 C   0  0  0  0  0  0  0  0  0  0  0  0
    6.8550   40.9485   15.3056 C   0  0  0  0  0  0  0  0  0  0  0  0
    4.2349   44.7737   17.8943 O   0  0  0  0  0  0  0  0  0  0  0  0
    2.6792   42.8591   17.8264 O   0  0  0  0  0  0  0  0  0  0  0  0
    2.8272   44.3726   15.6721 N   0  0  0  0  0  0  0  0  0  0  0  0
    8.1217   41.0350   17.4173 C   0  0  0  0  0  0  0  0  0  0  0  0
    8.8214   39.5348   15.6772 C   0  0  0  0  0  0  0  0  0  0  0  0
    7.8462   40.0498   14.6673 C   0  0  0  0  0  0  0  0  0  0  0  0
    9.2250   40.5430   16.6199 N   0  0  0  0  0  0  0  0  0  0  0  0
  1  2  2  0
  2  3  1  0
  3  4  2  0
  3  5  1  0
  4  6  1  0
  1  7  1  0
  6  7  2  0
  5  8  2  0
  5  9  2  0
  5 10  1  6
  6 11  1  0
  7 13  1  0
 12 13  1  0
 11 14  1  0
 12 14  1  0
M  END
$$$$
