1HNN_SKF_A_3001
     RDKit          3D

 14 15  0  0  0  0  0  0  0  0999 V2000
    7.2972   41.5018   18.3041 C   0  0  0  0  0  0  0  0  0  0  0  0
    6.3718   42.0686   17.4432 C   0  0  0  0  0  0  0  0  0  0  0  0
    5.2891   42.7761   17.9416 C   0  0  0  0  0  0  0  0  0  0  0  0
    5.1449   42.9083   19.2936 C   0  0  0  0  0  0  0  0  0  0  0  0
    4.1776   43.4529   16.7756 S   0  0  2  0  0  0  0  0  0  0  0  0
    6.0862   42.3313   20.1509 C   0  0  0  0  0  0  0  0  0  0  0  0
    7.1687   41.6250   19.6880 C   0  0  0  0  0  0  0  0  0  0  0  0
    3.3886   42.3811   16.1095 O   0  0  0  0  0  0  0  0  0  0  0  0
    4.9860   44.2268   15.7463 O   0  0  0  0  0  0  0  0  0  0  0  0
    3.1484   44.5679   17.6065 N   0  0  0  0  0  0  0  0  0  0  0  0
    5.8906   42.4995   21.6045 C   0  0  0  0  0  0  0  0  0  0  0  0
    7.7435   41.0214   21.9920 C   0  0  0  0  0  0  0  0  0  0  0  0
    8.1874   40.9990   20.5642 C   0  0  0  0  0  0  0  0  0  0  0  0
    7.1059   42.2588   22.3531 N   0  0  0  0  0  0  0  0  0  0  0  0
  1  2  2  0
  2  3  1  0
  3  4  2  0
  3  5  1  0
  4  6  1  0
  1  7  1  0
  6  7  2  0
  5  8  2  0
  5  9  2  0
  5 10  1  1
  6 11  1  0
  7 13  1  0
 12 13  1  0
 11 14  1  0
 12 14  1  0
M  END
$$$$
