1NAV_IH5_A_600
     RDKit          3D

 23 24  0  0  0  0  0  0  0  0999 V2000
   21.8955   -2.5138   24.8757 O   0  0  0  0  0  0  0  0  0  0  0  0
   23.1731   -2.1150   25.2664 C   0  0  0  0  0  0  0  0  0  0  0  0
   23.9614   -2.9968   25.7397 O   0  0  0  0  0  0  0  0  0  0  0  0
   23.6348   -0.6986   25.1457 C   0  0  0  0  0  0  0  0  0  0  0  0
   25.0824   -0.7021   25.4687 C   0  0  0  0  0  0  0  0  0  0  0  0
   26.0103   -0.6442   24.4604 C   0  0  0  0  0  0  0  0  0  0  0  0
   27.3630   -0.6463   24.7324 C   0  0  0  0  0  0  0  0  0  0  0  0
   27.8768   -0.7074   26.0258 C   0  0  0  0  0  0  0  0  0  0  0  0
   29.2123   -0.7114   26.2618 O   0  0  0  0  0  0  0  0  0  0  0  0
   30.0122   -1.6747   26.8428 C   0  0  0  0  0  0  0  0  0  0  0  0
   29.4462   -2.8127   27.4314 C   0  0  0  0  0  0  0  0  0  0  0  0
   30.2333   -3.7958   28.0199 C   0  0  0  0  0  0  0  0  0  0  0  0
   31.6010   -3.7084   28.0585 C   0  0  0  0  0  0  0  0  0  0  0  0
   32.3275   -4.7184   28.6579 O   0  0  0  0  0  0  0  0  0  0  0  0
   32.1743   -2.5958   27.4851 C   0  0  0  0  0  0  0  0  0  0  0  0
   31.3889   -1.6090   26.8944 C   0  0  0  0  0  0  0  0  0  0  0  0
   33.6577   -2.4869   27.5197 C   0  0  2  0  0  0  0  0  0  0  0  0
   34.1374   -1.1662   28.0782 C   0  0  0  0  0  0  0  0  0  0  0  0
   34.1875   -2.6330   26.1056 C   0  0  0  0  0  0  0  0  0  0  0  0
   26.9097   -0.7645   27.0339 C   0  0  0  0  0  0  0  0  0  0  0  0
   25.5517   -0.7618   26.7530 C   0  0  0  0  0  0  0  0  0  0  0  0
   27.3431   -0.8249   28.7281 Cl  0  0  0  0  0  0  0  0  0  0  0  0
   28.4205   -0.5277   23.3239 Cl  0  0  0  0  0  0  0  0  0  0  0  0
  1  2  1  0
  2  3  2  0
  2  4  1  0
  4  5  1  0
  5  6  2  0
  6  7  1  0
  7  8  2  0
  8  9  1  0
  9 10  1  0
 10 11  2  0
 11 12  1  0
 12 13  2  0
 13 14  1  0
 13 15  1  0
 10 16  1  0
 15 16  2  0
 15 17  1  0
 17 18  1  6
 17 19  1  0
  8 20  1  0
  5 21  1  0
 20 21  2  0
 20 22  1  0
  7 23  1  0
M  END
$$$$
