1NAV_IH5_A_600
     RDKit          3D

 23 24  0  0  0  0  0  0  0  0999 V2000
   43.9787   19.8097   37.8623 O   0  0  0  0  0  0  0  0  0  0  0  0
   43.6815   18.4595   38.0431 C   0  0  0  0  0  0  0  0  0  0  0  0
   44.2548   17.6097   37.2866 O   0  0  0  0  0  0  0  0  0  0  0  0
   42.7207   17.9905   39.0874 C   0  0  0  0  0  0  0  0  0  0  0  0
   42.6785   16.5117   38.9822 C   0  0  0  0  0  0  0  0  0  0  0  0
   43.7024   15.7580   39.4967 C   0  0  0  0  0  0  0  0  0  0  0  0
   43.6890   14.3808   39.4125 C   0  0  0  0  0  0  0  0  0  0  0  0
   42.6554   13.6675   38.8096 C   0  0  0  0  0  0  0  0  0  0  0  0
   42.6718   12.3133   38.7388 O   0  0  0  0  0  0  0  0  0  0  0  0
   42.1539   11.3690   39.6022 C   0  0  0  0  0  0  0  0  0  0  0  0
   41.1625   11.7162   40.5287 C   0  0  0  0  0  0  0  0  0  0  0  0
   40.6260   10.7806   41.4057 C   0  0  0  0  0  0  0  0  0  0  0  0
   41.0344    9.4718   41.4148 C   0  0  0  0  0  0  0  0  0  0  0  0
   40.4625    8.5901   42.3108 O   0  0  0  0  0  0  0  0  0  0  0  0
   42.0090    9.1131   40.5110 C   0  0  0  0  0  0  0  0  0  0  0  0
   42.5486   10.0477   39.6307 C   0  0  0  0  0  0  0  0  0  0  0  0
   42.4626    7.6962   40.5094 C   0  0  2  0  0  0  0  0  0  0  0  0
   43.9599    7.5580   40.6683 C   0  0  0  0  0  0  0  0  0  0  0  0
   42.0568    7.0589   39.1938 C   0  0  0  0  0  0  0  0  0  0  0  0
   41.6248   14.4598   38.2949 C   0  0  0  0  0  0  0  0  0  0  0  0
   41.6449   15.8436   38.3834 C   0  0  0  0  0  0  0  0  0  0  0  0
   40.2222   13.7607   37.5165 Cl  0  0  0  0  0  0  0  0  0  0  0  0
   45.0630   13.5615   40.1588 Cl  0  0  0  0  0  0  0  0  0  0  0  0
  1  2  1  0
  2  3  2  0
  2  4  1  0
  4  5  1  0
  5  6  2  0
  6  7  1  0
  7  8  2  0
  8  9  1  0
  9 10  1  0
 10 11  2  0
 11 12  1  0
 12 13  2  0
 13 14  1  0
 13 15  1  0
 10 16  1  0
 15 16  2  0
 15 17  1  0
 17 18  1  6
 17 19  1  0
  8 20  1  0
  5 21  1  0
 20 21  2  0
 20 22  1  0
  7 23  1  0
M  END
$$$$
