1NAV_IH5_A_600
     RDKit          3D

 23 24  0  0  0  0  0  0  0  0999 V2000
   22.4049   13.5299   33.0363 O   0  0  0  0  0  0  0  0  0  0  0  0
   23.6440   13.0623   32.6005 C   0  0  0  0  0  0  0  0  0  0  0  0
   24.1658   13.6053   31.5730 O   0  0  0  0  0  0  0  0  0  0  0  0
   24.3657   11.9553   33.2988 C   0  0  0  0  0  0  0  0  0  0  0  0
   25.6752   11.8148   32.6169 C   0  0  0  0  0  0  0  0  0  0  0  0
   25.8215   10.9161   31.5912 C   0  0  0  0  0  0  0  0  0  0  0  0
   27.0284   10.7648   30.9398 C   0  0  0  0  0  0  0  0  0  0  0  0
   28.1659   11.4983   31.2695 C   0  0  0  0  0  0  0  0  0  0  0  0
   29.3398   11.3249   30.6129 O   0  0  0  0  0  0  0  0  0  0  0  0
   29.6904   11.6383   29.3151 C   0  0  0  0  0  0  0  0  0  0  0  0
   28.7090   11.9540   28.3669 C   0  0  0  0  0  0  0  0  0  0  0  0
   29.0403   12.2745   27.0554 C   0  0  0  0  0  0  0  0  0  0  0  0
   30.3391   12.2993   26.6169 C   0  0  0  0  0  0  0  0  0  0  0  0
   30.6034   12.6256   25.3013 O   0  0  0  0  0  0  0  0  0  0  0  0
   31.3168   11.9908   27.5357 C   0  0  0  0  0  0  0  0  0  0  0  0
   30.9887   11.6694   28.8505 C   0  0  0  0  0  0  0  0  0  0  0  0
   32.7310   12.0132   27.0741 C   0  0  2  0  0  0  0  0  0  0  0  0
   33.1777   13.3827   26.6143 C   0  0  0  0  0  0  0  0  0  0  0  0
   32.8782   11.0443   25.9160 C   0  0  0  0  0  0  0  0  0  0  0  0
   27.9887   12.4072   32.3169 C   0  0  0  0  0  0  0  0  0  0  0  0
   26.7725   12.5541   32.9670 C   0  0  0  0  0  0  0  0  0  0  0  0
   29.2861   13.4414   32.8728 Cl  0  0  0  0  0  0  0  0  0  0  0  0
   27.0359    9.5946   29.6180 Cl  0  0  0  0  0  0  0  0  0  0  0  0
  1  2  1  0
  2  3  2  0
  2  4  1  0
  4  5  1  0
  5  6  2  0
  6  7  1  0
  7  8  2  0
  8  9  1  0
  9 10  1  0
 10 11  2  0
 11 12  1  0
 12 13  2  0
 13 14  1  0
 13 15  1  0
 10 16  1  0
 15 16  2  0
 15 17  1  0
 17 18  1  6
 17 19  1  0
  8 20  1  0
  5 21  1  0
 20 21  2  0
 20 22  1  0
  7 23  1  0
M  END
$$$$
