1NAV_IH5_A_600
     RDKit          3D

 23 24  0  0  0  0  0  0  0  0999 V2000
   43.1930   13.8875   18.0225 O   0  0  0  0  0  0  0  0  0  0  0  0
   44.3979   14.5197   18.3265 C   0  0  0  0  0  0  0  0  0  0  0  0
   45.4829   13.8979   18.0835 O   0  0  0  0  0  0  0  0  0  0  0  0
   44.4481   15.8896   18.9221 C   0  0  0  0  0  0  0  0  0  0  0  0
   45.8801   16.2729   18.9681 C   0  0  0  0  0  0  0  0  0  0  0  0
   46.3848   17.1523   18.0446 C   0  0  0  0  0  0  0  0  0  0  0  0
   47.7130   17.5257   18.0641 C   0  0  0  0  0  0  0  0  0  0  0  0
   48.6225   17.0461   19.0040 C   0  0  0  0  0  0  0  0  0  0  0  0
   49.9234   17.4289   18.9957 O   0  0  0  0  0  0  0  0  0  0  0  0
   50.5096   18.6047   19.4193 C   0  0  0  0  0  0  0  0  0  0  0  0
   51.8611   18.8634   19.1576 C   0  0  0  0  0  0  0  0  0  0  0  0
   52.4705   20.0416   19.5733 C   0  0  0  0  0  0  0  0  0  0  0  0
   51.7879   21.0125   20.2598 C   0  0  0  0  0  0  0  0  0  0  0  0
   52.4500   22.1616   20.6454 O   0  0  0  0  0  0  0  0  0  0  0  0
   50.4584   20.7745   20.5262 C   0  0  0  0  0  0  0  0  0  0  0  0
   49.8444   19.5953   20.1111 C   0  0  0  0  0  0  0  0  0  0  0  0
   49.7048   21.8191   21.2708 C   0  0  2  0  0  0  0  0  0  0  0  0
   48.9127   21.2583   22.4304 C   0  0  0  0  0  0  0  0  0  0  0  0
   48.7429   22.4976   20.3137 C   0  0  0  0  0  0  0  0  0  0  0  0
   48.0816   16.1528   19.9336 C   0  0  0  0  0  0  0  0  0  0  0  0
   46.7455   15.7821   19.9081 C   0  0  0  0  0  0  0  0  0  0  0  0
   49.0489   15.4503   21.2114 Cl  0  0  0  0  0  0  0  0  0  0  0  0
   48.1908   18.6946   16.8305 Cl  0  0  0  0  0  0  0  0  0  0  0  0
  1  2  1  0
  2  3  2  0
  2  4  1  0
  4  5  1  0
  5  6  2  0
  6  7  1  0
  7  8  2  0
  8  9  1  0
  9 10  1  0
 10 11  2  0
 11 12  1  0
 12 13  2  0
 13 14  1  0
 13 15  1  0
 10 16  1  0
 15 16  2  0
 15 17  1  0
 17 18  1  1
 17 19  1  0
  8 20  1  0
  5 21  1  0
 20 21  2  0
 20 22  1  0
  7 23  1  0
M  END
$$$$
