1NAV_IH5_A_600
     RDKit          3D

 23 24  0  0  0  0  0  0  0  0999 V2000
   43.4522   13.1836   17.9187 O   0  0  0  0  0  0  0  0  0  0  0  0
   44.4961   14.0324   18.2843 C   0  0  0  0  0  0  0  0  0  0  0  0
   45.6903   13.6527   18.0548 O   0  0  0  0  0  0  0  0  0  0  0  0
   44.2529   15.3583   18.9298 C   0  0  0  0  0  0  0  0  0  0  0  0
   45.5759   16.0203   19.0357 C   0  0  0  0  0  0  0  0  0  0  0  0
   46.4651   15.6252   20.0022 C   0  0  0  0  0  0  0  0  0  0  0  0
   47.7023   16.2240   20.1234 C   0  0  0  0  0  0  0  0  0  0  0  0
   48.1314   17.2547   19.2903 C   0  0  0  0  0  0  0  0  0  0  0  0
   49.3525   17.8263   19.4361 O   0  0  0  0  0  0  0  0  0  0  0  0
   49.7116   19.0274   20.0140 C   0  0  0  0  0  0  0  0  0  0  0  0
   49.2686   19.3614   21.3002 C   0  0  0  0  0  0  0  0  0  0  0  0
   49.6200   20.5645   21.9015 C   0  0  0  0  0  0  0  0  0  0  0  0
   50.4152   21.4883   21.2738 C   0  0  0  0  0  0  0  0  0  0  0  0
   50.7290   22.6653   21.9245 O   0  0  0  0  0  0  0  0  0  0  0  0
   50.8591   21.1766   20.0085 C   0  0  0  0  0  0  0  0  0  0  0  0
   50.5093   19.9721   19.4030 C   0  0  0  0  0  0  0  0  0  0  0  0
   51.7227   22.1697   19.3147 C   0  0  2  0  0  0  0  0  0  0  0  0
   51.0934   22.7161   18.0529 C   0  0  0  0  0  0  0  0  0  0  0  0
   53.0336   21.4997   18.9481 C   0  0  0  0  0  0  0  0  0  0  0  0
   47.2065   17.6368   18.3139 C   0  0  0  0  0  0  0  0  0  0  0  0
   45.9648   17.0303   18.1979 C   0  0  0  0  0  0  0  0  0  0  0  0
   47.5563   18.8981   17.1526 Cl  0  0  0  0  0  0  0  0  0  0  0  0
   48.7403   15.5710   21.3933 Cl  0  0  0  0  0  0  0  0  0  0  0  0
  1  2  1  0
  2  3  2  0
  2  4  1  0
  4  5  1  0
  5  6  2  0
  6  7  1  0
  7  8  2  0
  8  9  1  0
  9 10  1  0
 10 11  2  0
 11 12  1  0
 12 13  2  0
 13 14  1  0
 13 15  1  0
 10 16  1  0
 15 16  2  0
 15 17  1  0
 17 18  1  6
 17 19  1  0
  8 20  1  0
  5 21  1  0
 20 21  2  0
 20 22  1  0
  7 23  1  0
M  END
$$$$
