1NAV_IH5_A_600
     RDKit          3D

 23 24  0  0  0  0  0  0  0  0999 V2000
   42.6285   13.3863   18.0508 O   0  0  0  0  0  0  0  0  0  0  0  0
   43.7607   14.0534   18.5170 C   0  0  0  0  0  0  0  0  0  0  0  0
   44.3029   13.6406   19.5934 O   0  0  0  0  0  0  0  0  0  0  0  0
   44.3461   15.2242   17.7958 C   0  0  0  0  0  0  0  0  0  0  0  0
   45.4274   15.7513   18.6635 C   0  0  0  0  0  0  0  0  0  0  0  0
   45.3699   17.0421   19.1234 C   0  0  0  0  0  0  0  0  0  0  0  0
   46.3622   17.5580   19.9316 C   0  0  0  0  0  0  0  0  0  0  0  0
   47.4746   16.8213   20.3318 C   0  0  0  0  0  0  0  0  0  0  0  0
   48.4359   17.3571   21.1242 O   0  0  0  0  0  0  0  0  0  0  0  0
   48.9245   16.9336   22.3438 C   0  0  0  0  0  0  0  0  0  0  0  0
   48.0668   16.7714   23.4392 C   0  0  0  0  0  0  0  0  0  0  0  0
   48.5377   16.3441   24.6754 C   0  0  0  0  0  0  0  0  0  0  0  0
   49.8610   16.0590   24.8925 C   0  0  0  0  0  0  0  0  0  0  0  0
   50.2666   15.6383   26.1439 O   0  0  0  0  0  0  0  0  0  0  0  0
   50.7186   16.2136   23.8267 C   0  0  0  0  0  0  0  0  0  0  0  0
   50.2504   16.6414   22.5867 C   0  0  0  0  0  0  0  0  0  0  0  0
   52.1578   15.9083   24.0474 C   0  0  2  0  0  0  0  0  0  0  0  0
   53.0675   17.0533   23.6625 C   0  0  0  0  0  0  0  0  0  0  0  0
   52.5295   14.6965   23.2139 C   0  0  0  0  0  0  0  0  0  0  0  0
   47.5074   15.5092   19.8500 C   0  0  0  0  0  0  0  0  0  0  0  0
   46.5064   14.9973   19.0382 C   0  0  0  0  0  0  0  0  0  0  0  0
   48.8073   14.4091   20.2523 Cl  0  0  0  0  0  0  0  0  0  0  0  0
   46.1158   19.2220   20.4674 Cl  0  0  0  0  0  0  0  0  0  0  0  0
  1  2  1  0
  2  3  2  0
  2  4  1  0
  4  5  1  0
  5  6  2  0
  6  7  1  0
  7  8  2  0
  8  9  1  0
  9 10  1  0
 10 11  2  0
 11 12  1  0
 12 13  2  0
 13 14  1  0
 13 15  1  0
 10 16  1  0
 15 16  2  0
 15 17  1  0
 17 18  1  6
 17 19  1  0
  8 20  1  0
  5 21  1  0
 20 21  2  0
 20 22  1  0
  7 23  1  0
M  END
$$$$
