1NAV_IH5_A_600
     RDKit          3D

 23 24  0  0  0  0  0  0  0  0999 V2000
   43.7448   13.6681   17.7926 O   0  0  0  0  0  0  0  0  0  0  0  0
   44.6347   14.6492   18.2281 C   0  0  0  0  0  0  0  0  0  0  0  0
   44.1825   15.8207   18.4429 O   0  0  0  0  0  0  0  0  0  0  0  0
   46.0857   14.3651   18.4464 C   0  0  0  0  0  0  0  0  0  0  0  0
   46.6784   15.6117   18.9892 C   0  0  0  0  0  0  0  0  0  0  0  0
   47.0062   15.6931   20.3184 C   0  0  0  0  0  0  0  0  0  0  0  0
   47.5584   16.8406   20.8498 C   0  0  0  0  0  0  0  0  0  0  0  0
   47.8181   17.9796   20.0909 C   0  0  0  0  0  0  0  0  0  0  0  0
   48.3587   19.0944   20.6423 O   0  0  0  0  0  0  0  0  0  0  0  0
   49.6248   19.6289   20.5133 C   0  0  0  0  0  0  0  0  0  0  0  0
   50.6656   18.8733   19.9586 C   0  0  0  0  0  0  0  0  0  0  0  0
   51.9473   19.3928   19.8177 C   0  0  0  0  0  0  0  0  0  0  0  0
   52.2647   20.6670   20.2118 C   0  0  0  0  0  0  0  0  0  0  0  0
   53.5569   21.1253   20.0451 O   0  0  0  0  0  0  0  0  0  0  0  0
   51.2538   21.4238   20.7599 C   0  0  0  0  0  0  0  0  0  0  0  0
   49.9684   20.9067   20.9025 C   0  0  0  0  0  0  0  0  0  0  0  0
   51.5834   22.8085   21.1926 C   0  0  2  0  0  0  0  0  0  0  0  0
   51.5622   22.9757   22.6953 C   0  0  0  0  0  0  0  0  0  0  0  0
   50.5684   23.7599   20.5876 C   0  0  0  0  0  0  0  0  0  0  0  0
   47.4757   17.8689   18.7399 C   0  0  0  0  0  0  0  0  0  0  0  0
   46.9211   16.7123   18.2127 C   0  0  0  0  0  0  0  0  0  0  0  0
   47.7398   19.1781   17.6093 Cl  0  0  0  0  0  0  0  0  0  0  0  0
   47.9572   16.7656   22.5678 Cl  0  0  0  0  0  0  0  0  0  0  0  0
  1  2  1  0
  2  3  2  0
  2  4  1  0
  4  5  1  0
  5  6  2  0
  6  7  1  0
  7  8  2  0
  8  9  1  0
  9 10  1  0
 10 11  2  0
 11 12  1  0
 12 13  2  0
 13 14  1  0
 13 15  1  0
 10 16  1  0
 15 16  2  0
 15 17  1  0
 17 18  1  1
 17 19  1  0
  8 20  1  0
  5 21  1  0
 20 21  2  0
 20 22  1  0
  7 23  1  0
M  END
$$$$
