7PIH_7QW_A_401
     RDKit          3D

 45 48  0  0  0  0  0  0  0  0999 V2000
   13.1320  -26.4196  -23.6538 O   0  0  0  0  0  0  0  0  0  0  0  0
   14.3202  -25.9215  -24.1946 C   0  0  0  0  0  0  0  0  0  0  0  0
   15.4889  -26.3985  -23.6883 N   0  0  0  0  0  0  0  0  0  0  0  0
   16.7020  -25.9880  -24.1363 C   0  0  0  0  0  0  0  0  0  0  0  0
   16.7885  -25.0421  -25.1531 C   0  0  0  0  0  0  0  0  0  0  0  0
   15.6156  -24.5176  -25.7089 C   0  0  0  0  0  0  0  0  0  0  0  0
   14.3525  -24.9546  -25.2335 C   0  0  0  0  0  0  0  0  0  0  0  0
   13.1881  -24.4115  -25.8122 C   0  0  0  0  0  0  0  0  0  0  0  0
   13.2778  -23.4628  -26.8336 C   0  0  0  0  0  0  0  0  0  0  0  0
   15.6928  -23.5633  -26.7348 C   0  0  0  0  0  0  0  0  0  0  0  0
   14.5265  -23.0292  -27.3051 C   0  0  0  0  0  0  0  0  0  0  0  0
   14.6103  -22.0183  -28.3896 C   0  0  0  0  0  0  0  0  0  0  0  0
   15.7199  -21.1611  -28.4830 C   0  0  0  0  0  0  0  0  0  0  0  0
   15.8005  -20.2207  -29.5111 C   0  0  0  0  0  0  0  0  0  0  0  0
   14.7684  -20.1088  -30.4440 C   0  0  0  0  0  0  0  0  0  0  0  0
   13.5783  -21.9041  -29.3386 C   0  0  0  0  0  0  0  0  0  0  0  0
   13.6285  -20.9245  -30.3464 C   0  0  0  0  0  0  0  0  0  0  0  0
   12.5046  -20.8056  -31.3619 C   0  0  1  0  0  0  0  0  0  0  0  0
   11.2361  -21.4657  -30.9697 N   0  0  0  0  0  0  0  0  0  0  0  0
   11.2105  -22.0218  -29.6092 C   0  0  1  0  0  0  0  0  0  0  0  0
    9.8014  -21.8362  -29.0754 C   0  0  1  0  0  0  0  0  0  0  0  0
   10.0145  -20.6712  -31.1693 C   0  0  1  0  0  0  0  0  0  0  0  0
    9.2548  -20.6442  -29.8465 C   0  0  2  0  0  0  0  0  0  0  0  0
    9.4960  -19.3830  -29.1380 N   0  0  0  0  0  0  0  0  0  0  0  0
   12.2075  -26.1566  -23.9621 H   0  0  0  0  0  0  0  0  0  0  0  0
   17.6027  -26.3988  -23.7000 H   0  0  0  0  0  0  0  0  0  0  0  0
   17.7637  -24.7228  -25.5016 H   0  0  0  0  0  0  0  0  0  0  0  0
   12.1987  -24.6978  -25.4936 H   0  0  0  0  0  0  0  0  0  0  0  0
   12.3636  -23.0525  -27.2452 H   0  0  0  0  0  0  0  0  0  0  0  0
   16.6631  -23.2489  -27.1022 H   0  0  0  0  0  0  0  0  0  0  0  0
   16.5230  -21.2153  -27.7589 H   0  0  0  0  0  0  0  0  0  0  0  0
   16.6672  -19.5767  -29.5860 H   0  0  0  0  0  0  0  0  0  0  0  0
   14.8679  -19.3922  -31.2488 H   0  0  0  0  0  0  0  0  0  0  0  0
   12.7431  -22.5928  -29.3051 H   0  0  0  0  0  0  0  0  0  0  0  0
   12.3003  -19.7307  -31.5600 H   0  0  0  0  0  0  0  0  0  0  0  0
   12.8414  -21.2243  -32.3355 H   0  0  0  0  0  0  0  0  0  0  0  0
   11.4761  -23.0999  -29.6394 H   0  0  0  0  0  0  0  0  0  0  0  0
   11.9122  -21.5081  -28.9262 H   0  0  0  0  0  0  0  0  0  0  0  0
    9.1949  -22.7384  -29.3123 H   0  0  0  0  0  0  0  0  0  0  0  0
    9.7941  -21.6749  -27.9751 H   0  0  0  0  0  0  0  0  0  0  0  0
   10.2031  -19.6500  -31.5527 H   0  0  0  0  0  0  0  0  0  0  0  0
    9.3919  -21.1878  -31.9313 H   0  0  0  0  0  0  0  0  0  0  0  0
    8.1619  -20.7592  -30.0235 H   0  0  0  0  0  0  0  0  0  0  0  0
   10.4979  -19.3259  -28.8420 H   0  0  0  0  0  0  0  0  0  0  0  0
    8.9156  -19.3767  -28.2679 H   0  0  0  0  0  0  0  0  0  0  0  0
  1  2  1  0
  2  3  2  0
  3  4  1  0
  4  5  2  0
  5  6  1  0
  6  7  2  0
  2  7  1  0
  7  8  1  0
  8  9  2  0
  6 10  1  0
  9 11  1  0
 10 11  2  0
 11 12  1  0
 12 13  2  0
 13 14  1  0
 14 15  2  0
 12 16  1  0
 15 17  1  0
 16 17  2  0
 17 18  1  0
 18 19  1  0
 19 20  1  0
 20 21  1  0
 19 22  1  0
 22 23  1  0
 21 23  1  0
 23 24  1  0
  1 25  1  0
  4 26  1  0
  5 27  1  0
  8 28  1  0
  9 29  1  0
 10 30  1  0
 13 31  1  0
 14 32  1  0
 15 33  1  0
 16 34  1  0
 18 35  1  6
 18 36  1  0
 20 37  1  6
 20 38  1  0
 21 39  1  1
 21 40  1  0
 22 41  1  6
 22 42  1  0
 23 43  1  6
 24 44  1  0
 24 45  1  0
M  END
