1TT1_KAI_A_998
     RDKit          3D

 15 15  0  0  0  0  0  0  0  0999 V2000
    7.0434   15.1186   13.3436 N   0  0  0  0  0  0  0  0  0  0  0  0
    6.4527   13.8003   12.8207 C   0  0  0  0  0  0  0  0  0  0  0  0
    4.5028   11.5696   12.8562 C   0  0  0  0  0  0  0  0  0  0  0  0
    4.1341   11.5105   15.2741 C   0  0  0  0  0  0  0  0  0  0  0  0
    6.7573   15.2157   14.7649 C   0  0  1  0  0  0  0  0  0  0  0  0
    5.5441   14.3504   14.9956 C   0  0  1  0  0  0  0  0  0  0  0  0
    4.1208   14.9739   14.5818 C   0  0  0  0  0  0  0  0  0  0  0  0
    5.8688   13.1504   14.1593 C   0  0  1  0  0  0  0  0  0  0  0  0
    3.9033   16.3570   15.2098 C   0  0  0  0  0  0  0  0  0  0  0  0
    4.7776   12.0108   14.0366 C   0  0  0  0  0  0  0  0  0  0  0  0
    7.9980   14.8708   15.6760 C   0  0  0  0  0  0  0  0  0  0  0  0
    9.1138   15.1564   15.1881 O   0  0  0  0  0  0  0  0  0  0  0  0
    3.1353   17.0942   14.5757 O   0  0  0  0  0  0  0  0  0  0  0  0
    4.4860   16.6488   16.2778 O   0  0  0  0  0  0  0  0  0  0  0  0
    7.7451   14.3757   16.8167 O   0  0  0  0  0  0  0  0  0  0  0  0
  1  2  1  0
  1  5  1  0
  5  6  1  0
  6  7  1  6
  2  8  1  0
  6  8  1  0
  7  9  1  0
  3 10  2  0
  4 10  1  0
  8 10  1  6
  5 11  1  1
 11 12  2  0
  9 13  1  0
  9 14  2  0
 11 15  1  0
M  END
