8DP2_UMA_A_501
     RDKit          3D

 49 51  0  0  0  0  0  0  0  0999 V2000
   38.0316  -15.0399   -5.5071 N   0  0  0  0  0  0  0  0  0  0  0  0
   37.2724  -15.4755   -4.4841 C   0  0  0  0  0  0  0  0  0  0  0  0
   36.0642  -14.9581   -4.2011 N   0  0  0  0  0  0  0  0  0  0  0  0
   35.5248  -13.9647   -4.9219 C   0  0  0  0  0  0  0  0  0  0  0  0
   36.2822  -13.4914   -5.9854 C   0  0  0  0  0  0  0  0  0  0  0  0
   37.5196  -14.0419   -6.2524 C   0  0  0  0  0  0  0  0  0  0  0  0
   37.6984  -16.3896   -3.7711 O   0  0  0  0  0  0  0  0  0  0  0  0
   34.3872  -13.4656   -4.6684 O   0  0  0  0  0  0  0  0  0  0  0  0
   39.3166  -15.5504   -5.8524 C   0  0  1  0  0  0  0  0  0  0  0  0
   39.5016  -15.9810   -7.2575 C   0  0  2  0  0  0  0  0  0  0  0  0
   39.0639  -17.2568   -7.5600 O   0  0  0  0  0  0  0  0  0  0  0  0
   41.0366  -16.0729   -7.2915 C   0  0  1  0  0  0  0  0  0  0  0  0
   41.4067  -14.9517   -6.3687 C   0  0  2  0  0  0  0  0  0  0  0  0
   40.2892  -14.5807   -5.6427 O   0  0  0  0  0  0  0  0  0  0  0  0
   41.4298  -17.2813   -6.6952 O   0  0  0  0  0  0  0  0  0  0  0  0
   41.8052  -13.7828   -7.2487 C   0  0  0  0  0  0  0  0  0  0  0  0
   42.3336  -12.7170   -6.5456 O   0  0  0  0  0  0  0  0  0  0  0  0
   41.3591  -11.3265   -6.6788 P   0  0  1  0  0  5  0  0  0  0  0  0
   39.9341  -11.6374   -6.2971 O   0  0  0  0  0  0  0  0  0  0  0  0
   41.9737  -10.1470   -5.6273 O   0  0  0  0  0  0  0  0  0  0  0  0
   41.3941  -10.6898   -8.2220 O   0  0  0  0  0  0  0  0  0  0  0  0
   42.8693   -9.9226   -8.5805 P   0  0  2  0  0  5  0  0  0  0  0  0
   43.7599  -10.0004   -7.3645 O   0  0  0  0  0  0  0  0  0  0  0  0
   42.5008   -8.3112   -8.9373 O   0  0  0  0  0  0  0  0  0  0  0  0
   43.5999  -10.6243   -9.9329 O   0  0  0  0  0  0  0  0  0  0  0  0
   44.1512   -9.6427  -10.7236 C   0  0  2  0  0  0  0  0  0  0  0  0
   43.8459   -9.8497  -12.2071 C   0  0  2  0  0  0  0  0  0  0  0  0
   42.4020   -9.8211  -12.4273 N   0  0  0  0  0  0  0  0  0  0  0  0
   41.7375   -8.5489  -12.5657 C   0  0  0  0  0  0  0  0  0  0  0  0
   42.2111   -7.6352  -13.2883 O   0  0  0  0  0  0  0  0  0  0  0  0
   40.4628   -8.3515  -11.8194 C   0  0  0  0  0  0  0  0  0  0  0  0
   44.4823  -11.1209  -12.7207 C   0  0  1  0  0  0  0  0  0  0  0  0
   44.1347  -11.3722  -14.0103 O   0  0  0  0  0  0  0  0  0  0  0  0
   45.9556  -11.0532  -12.4446 C   0  0  2  0  0  0  0  0  0  0  0  0
   46.6448  -12.2228  -12.6822 O   0  0  0  0  0  0  0  0  0  0  0  0
   46.1086  -10.7728  -10.9623 C   0  0  2  0  0  0  0  0  0  0  0  0
   45.5376   -9.5493  -10.6127 O   0  0  0  0  0  0  0  0  0  0  0  0
   47.5407  -10.7592  -10.5279 C   0  0  0  0  0  0  0  0  0  0  0  0
   48.3157   -9.7797  -11.1205 O   0  0  0  0  0  0  0  0  0  0  0  0
   42.8272  -11.5511  -14.3231 C   0  0  1  0  0  0  0  0  0  0  0  0
   42.5523  -10.9364  -15.6479 C   0  0  0  0  0  0  0  0  0  0  0  0
   43.4371  -10.4042  -16.3650 O   0  0  0  0  0  0  0  0  0  0  0  0
   42.5900  -13.0551  -14.5377 C   0  0  0  0  0  0  0  0  0  0  0  0
   41.2191  -10.9161  -16.1993 N   0  0  0  0  0  0  0  0  0  0  0  0
   40.9759  -10.2917  -17.4861 C   0  0  2  0  0  0  0  0  0  0  0  0
   41.3478   -8.8558  -17.4426 C   0  0  0  0  0  0  0  0  0  0  0  0
   41.7937   -8.2619  -18.4430 O   0  0  0  0  0  0  0  0  0  0  0  0
   41.2038   -8.1407  -16.2730 O   0  0  0  0  0  0  0  0  0  0  0  0
   39.4846  -10.3340  -17.8242 C   0  0  0  0  0  0  0  0  0  0  0  0
  1  2  1  0
  2  3  1  0
  3  4  1  0
  4  5  1  0
  1  6  1  0
  5  6  2  0
  2  7  2  0
  4  8  2  0
  9  1  1  6
  9 10  1  0
 10 11  1  1
 10 12  1  0
 12 13  1  0
  9 14  1  0
 13 14  1  6
 12 15  1  1
 13 16  1  0
 16 17  1  6
 18 17  1  0
 18 19  2  0
 18 20  1  1
 18 21  1  0
 22 21  1  0
 22 23  2  0
 22 24  1  6
 22 25  1  0
 26 25  1  1
 26 27  1  0
 27 28  1  1
 28 29  1  0
 29 30  2  0
 31 29  1  1
 27 32  1  0
 32 33  1  6
 32 34  1  0
 34 35  1  1
 34 36  1  0
 26 37  1  0
 36 37  1  6
 36 38  1  0
 38 39  1  6
 40 33  1  6
 40 41  1  0
 41 42  2  0
 43 40  1  1
 41 44  1  0
 45 44  1  1
 45 46  1  0
 46 47  2  0
 46 48  1  0
 49 45  1  1
M  END
$$$$
