7Z7F_IF3_A_606
     RDKit          3D

 14 15  0  0  0  0  0  0  0  0999 V2000
   18.1097   51.0846    5.1083 C   0  0  0  0  0  0  0  0  0  0  0  0
   21.9027   48.3502    9.6552 C   0  0  0  0  0  0  0  0  0  0  0  0
   20.2998   47.6909    7.8156 C   0  0  0  0  0  0  0  0  0  0  0  0
   19.6714   46.7131    7.0721 C   0  0  0  0  0  0  0  0  0  0  0  0
   18.8064   47.0331    6.0358 C   0  0  0  0  0  0  0  0  0  0  0  0
   19.2006   49.2728    6.4897 C   0  0  0  0  0  0  0  0  0  0  0  0
   18.9252   44.8437    6.1949 C   0  0  0  0  0  0  0  0  0  0  0  0
   17.4417   45.7681    4.4147 C   0  0  0  0  0  0  0  0  0  0  0  0
   21.1857   47.3552    8.8769 N   0  0  0  0  0  0  0  0  0  0  0  0
   18.5708   48.3412    5.7442 N   0  0  0  0  0  0  0  0  0  0  0  0
   20.0397   48.9637    7.4949 N   0  0  0  0  0  0  0  0  0  0  0  0
   18.9653   50.6565    6.1979 N   0  0  0  0  0  0  0  0  0  0  0  0
   18.3627   45.8747    5.5146 N   0  0  0  0  0  0  0  0  0  0  0  0
   19.7308   45.3748    7.1535 N   0  0  0  0  0  0  0  0  0  0  0  0
  3  4  2  0
  4  5  1  0
  2  9  1  0
  3  9  1  0
  5 10  2  0
  6 10  1  0
  3 11  1  0
  6 11  2  0
  6 12  1  0
  1 12  1  0
  7 13  1  0
  5 13  1  0
  8 13  1  0
  7 14  2  0
  4 14  1  0
M  END
$$$$
