7ES1_UDP_A_501
     RDKit          3D

 25 26  0  0  0  0  0  0  0  0999 V2000
   10.3729    9.9805   17.6935 N   0  0  0  0  0  0  0  0  0  0  0  0
    9.0521   10.3071   17.7428 C   0  0  0  0  0  0  0  0  0  0  0  0
    8.1498    9.4849   18.3307 N   0  0  0  0  0  0  0  0  0  0  0  0
    8.5250    8.3130   18.8888 C   0  0  0  0  0  0  0  0  0  0  0  0
    9.8618    7.9719   18.8445 C   0  0  0  0  0  0  0  0  0  0  0  0
   10.7942    8.8120   18.2421 C   0  0  0  0  0  0  0  0  0  0  0  0
    8.6252   11.3659   17.2534 O   0  0  0  0  0  0  0  0  0  0  0  0
    7.6951    7.5451   19.4357 O   0  0  0  0  0  0  0  0  0  0  0  0
   11.3342   10.8666   17.0618 C   0  0  1  0  0  0  0  0  0  0  0  0
   11.7079   11.9835   18.0005 C   0  0  2  0  0  0  0  0  0  0  0  0
   11.4409   13.1779   17.3388 O   0  0  0  0  0  0  0  0  0  0  0  0
   13.2365   11.8471   18.0049 C   0  0  1  0  0  0  0  0  0  0  0  0
   13.4114   11.2694   16.6064 C   0  0  2  0  0  0  0  0  0  0  0  0
   12.4891   10.2253   16.6603 O   0  0  0  0  0  0  0  0  0  0  0  0
   13.8740   13.0604   18.1526 O   0  0  0  0  0  0  0  0  0  0  0  0
   14.8250   10.7976   16.3609 C   0  0  0  0  0  0  0  0  0  0  0  0
   15.3043   10.2833   17.5581 O   0  0  0  0  0  0  0  0  0  0  0  0
   15.0019    8.6545   17.7489 P   0  0  2  0  0  0  0  0  0  0  0  0
   14.0038    8.1272   16.7349 O   0  0  0  0  0  0  0  0  0  0  0  0
   14.3585    8.3727   19.2856 O   0  0  0  0  0  0  0  0  0  0  0  0
   16.4091    7.7743   17.5740 O   0  0  0  0  0  0  0  0  0  0  0  0
   17.0066    7.8702   15.9976 P   0  0  2  0  0  0  0  0  0  0  0  0
   15.8084    7.7432   15.0601 O   0  0  0  0  0  0  0  0  0  0  0  0
   18.1136    6.6298   15.8010 O   0  0  0  0  0  0  0  0  0  0  0  0
   17.7658    9.3485   15.7445 O   0  0  0  0  0  0  0  0  0  0  0  0
  1  2  1  0
  2  3  1  0
  3  4  1  0
  4  5  1  0
  1  6  1  0
  5  6  2  0
  2  7  2  0
  4  8  2  0
  9  1  1  1
  9 10  1  0
 10 11  1  6
 10 12  1  0
 12 13  1  0
  9 14  1  0
 13 14  1  0
 12 15  1  6
 13 16  1  1
 16 17  1  0
 17 18  1  0
 18 19  2  0
 18 20  1  1
 18 21  1  0
 21 22  1  0
 22 23  2  0
 22 24  1  6
 22 25  1  0
M  END
$$$$
